lig.pdb
 OpenBabel11021811523D
libRbt.so/2013.1/901 2013/11/27
 46 52  0  0  0  0  0  0  0  0999 V2000
  160.1667   45.9911  143.5020 P   0  0  2  0  0  0  0  0  0  0  0  0
  160.9373   47.2540  143.8194 O   0  0  0  0  0  0  0  0  0  0  0  0
  159.6068   45.8714  142.1079 O   0  0  0  0  0  0  0  0  0  0  0  0
  158.9687   45.7587  144.5487 O   0  0  0  0  0  0  0  0  0  0  0  0
  158.8440   46.5481  145.7245 C   0  0  0  0  0  0  0  0  0  0  0  0
  157.8944   45.8769  146.7030 C   0  0  1  0  0  0  0  0  0  0  0  0
  156.6491   46.5579  146.6443 O   0  0  0  0  0  0  0  0  0  0  0  0
  157.5910   44.4098  146.4266 C   0  0  1  0  0  0  0  0  0  0  0  0
  158.3156   43.5927  147.3342 O   0  0  0  0  0  0  0  0  0  0  0  0
  156.1200   44.2863  146.7550 C   0  0  1  0  0  0  0  0  0  0  0  0
  155.9633   43.9450  148.1338 O   0  0  0  0  0  0  0  0  0  0  0  0
  155.5489   45.6635  146.5799 C   0  0  2  0  0  0  0  0  0  0  0  0
  154.9316   45.7672  145.2364 N   0  0  0  0  0  0  0  0  0  0  0  0
  155.4854   46.3581  144.1633 C   0  0  0  0  0  0  0  0  0  0  0  0
  154.6512   46.2912  143.0981 N   0  0  0  0  0  0  0  0  0  0  0  0
  153.5351   45.6468  143.4827 C   0  0  0  0  0  0  0  0  0  0  0  0
  152.2605   45.2379  142.8469 C   0  0  0  0  0  0  0  0  0  0  0  0
  152.0393   45.5086  141.6420 O   0  0  0  0  0  0  0  0  0  0  0  0
  151.3652   44.5788  143.6022 N   0  0  0  0  0  0  0  0  0  0  0  0
  151.6068   44.2921  144.8954 C   0  0  0  0  0  0  0  0  0  0  0  0
  150.6717   43.6224  145.6055 N   0  0  0  0  0  0  0  0  0  0  0  0
  152.7469   44.6358  145.5364 N   0  0  0  0  0  0  0  0  0  0  0  0
  153.7298   45.3029  144.8947 C   0  0  0  0  0  0  0  0  0  0  0  0
  158.4562   41.9837  147.1687 P   0  0  2  0  0  0  0  0  0  0  0  0
  157.0894   41.3885  146.9323 O   0  0  0  0  0  0  0  0  0  0  0  0
  159.3208   41.5167  148.3247 O   0  0  0  0  0  0  0  0  0  0  0  0
  159.2878   41.8488  145.7905 O   0  0  0  0  0  0  0  0  0  0  0  0
  160.7034   42.0289  145.7883 C   0  0  0  0  0  0  0  0  0  0  0  0
  161.2708   42.3290  144.3973 C   0  0  1  0  0  0  0  0  0  0  0  0
  161.2516   41.1354  143.6115 O   0  0  0  0  0  0  0  0  0  0  0  0
  160.5131   43.3920  143.6050 C   0  0  1  0  0  0  0  0  0  0  0  0
  161.0846   44.6906  143.7580 O   0  0  0  0  0  0  0  0  0  0  0  0
  160.6464   42.8884  142.1800 C   0  0  1  0  0  0  0  0  0  0  0  0
  161.8588   43.3595  141.5852 O   0  0  0  0  0  0  0  0  0  0  0  0
  160.7519   41.3820  142.2944 C   0  0  2  0  0  0  0  0  0  0  0  0
  159.4008   40.7798  142.1759 N   0  0  0  0  0  0  0  0  0  0  0  0
  158.8152   39.9771  143.0866 C   0  0  0  0  0  0  0  0  0  0  0  0
  157.5672   39.5944  142.6978 N   0  0  0  0  0  0  0  0  0  0  0  0
  157.3307   40.1676  141.5071 C   0  0  0  0  0  0  0  0  0  0  0  0
  156.2164   40.1764  140.5253 C   0  0  0  0  0  0  0  0  0  0  0  0
  155.1483   39.5572  140.7196 O   0  0  0  0  0  0  0  0  0  0  0  0
  156.3793   40.8995  139.4161 N   0  0  0  0  0  0  0  0  0  0  0  0
  157.5040   41.5867  139.1639 C   0  0  0  0  0  0  0  0  0  0  0  0
  157.5658   42.2686  138.0104 N   0  0  0  0  0  0  0  0  0  0  0  0
  158.5651   41.6210  140.0037 N   0  0  0  0  0  0  0  0  0  0  0  0
  158.5414   40.9432  141.1704 C   0  0  0  0  0  0  0  0  0  0  0  0
  1  3  2  6  0  0  0
  1 32  1  0  0  0  0
  1  2  1  0  0  0  0
  1  4  1  0  0  0  0
  4  5  1  0  0  0  0
  6  5  1  6  0  0  0
  7  6  1  0  0  0  0
  8  6  1  0  0  0  0
  8 10  1  0  0  0  0
  8  9  1  1  0  0  0
 10 11  1  1  0  0  0
 12 13  1  6  0  0  0
 12  7  1  0  0  0  0
 12 10  1  0  0  0  0
 14 13  1  0  0  0  0
 15 16  1  0  0  0  0
 15 14  2  0  0  0  0
 16 23  2  0  0  0  0
 17 16  1  0  0  0  0
 17 19  1  0  0  0  0
 18 17  2  0  0  0  0
 19 20  2  0  0  0  0
 20 22  1  0  0  0  0
 20 21  1  0  0  0  0
 23 13  1  0  0  0  0
 23 22  1  0  0  0  0
 24 25  2  6  0  0  0
 24  9  1  0  0  0  0
 24 26  1  0  0  0  0
 27 28  1  0  0  0  0
 27 24  1  0  0  0  0
 29 30  1  6  0  0  0
 29 28  1  0  0  0  0
 31 32  1  6  0  0  0
 31 29  1  0  0  0  0
 33 34  1  1  0  0  0
 33 35  1  0  0  0  0
 33 31  1  0  0  0  0
 35 36  1  1  0  0  0
 35 30  1  0  0  0  0
 36 37  1  0  0  0  0
 38 37  2  0  0  0  0
 39 38  1  0  0  0  0
 40 41  2  0  0  0  0
 40 39  1  0  0  0  0
 42 40  1  0  0  0  0
 43 42  2  0  0  0  0
 43 45  1  0  0  0  0
 44 43  1  0  0  0  0
 45 46  1  0  0  0  0
 46 39  2  0  0  0  0
 46 36  1  0  0  0  0
M  END
>  <CHROM.1>
14.20508639,-8.40465290,157.46174896,43.49323622,143.98349524,-0.45377764
-0.18739228,1.02369532

>  <Name>
lig.pdb

>  <RI>
0

>  <Rbt.Current_Directory>
/home/itssahil/PROJECTS/Mol_Feturizer/New_Systems/rnas/4yb0

>  <Rbt.Executable>
rbdock ($Id: //depot/dev/client3/rdock/2013.1/src/exe/rbdock.cxx#4 $)

>  <Rbt.Library>
libRbt.so (2013.1, Build901 2013/11/27)

>  <Rbt.Parameter_File>
/export/apps/rDock/src/rDock_2013.1_src/data/scripts/dock_solv.prm

>  <Rbt.Receptor>
prm/pocket_docking_3.prm

>  <SCORE>
-53.2046

>  <SCORE.INTER>
-53.1381

>  <SCORE.INTER.CONST>
1

>  <SCORE.INTER.POLAR>
0

>  <SCORE.INTER.ROT>
2

>  <SCORE.INTER.SOLV>
30.4507

>  <SCORE.INTER.VDW>
-50.5089

>  <SCORE.INTER.norm>
-1.15518

>  <SCORE.INTRA>
-0.066529

>  <SCORE.INTRA.DIHEDRAL>
-0.00018205

>  <SCORE.INTRA.DIHEDRAL.0>
4.74153

>  <SCORE.INTRA.POLAR>
0

>  <SCORE.INTRA.POLAR.0>
0

>  <SCORE.INTRA.REPUL>
0

>  <SCORE.INTRA.REPUL.0>
0

>  <SCORE.INTRA.SOLV>
0.0143689

>  <SCORE.INTRA.SOLV.lig_0>
-60.4375

>  <SCORE.INTRA.VDW>
-0.0736224

>  <SCORE.INTRA.VDW.0>
-1.83689

>  <SCORE.INTRA.norm>
-0.00144628

>  <SCORE.RESTR>
0

>  <SCORE.RESTR.CAVITY>
0

>  <SCORE.RESTR.norm>
0

>  <SCORE.SYSTEM>
0

>  <SCORE.SYSTEM.CONST>
0

>  <SCORE.SYSTEM.DIHEDRAL>
0

>  <SCORE.SYSTEM.SOLV>
0

>  <SCORE.SYSTEM.norm>
0

>  <SCORE.heavy>
46

>  <SCORE.norm>
-1.15662

>  <RMSD>
0.265

$$$$
lig.pdb
 OpenBabel11021811523D
libRbt.so/2013.1/901 2013/11/27
 46 52  0  0  0  0  0  0  0  0999 V2000
  159.8930   46.1343  143.4026 P   0  0  2  0  0  0  0  0  0  0  0  0
  160.5957   47.4375  143.7146 O   0  0  0  0  0  0  0  0  0  0  0  0
  159.3776   45.9620  141.9970 O   0  0  0  0  0  0  0  0  0  0  0  0
  158.6786   45.8665  144.4218 O   0  0  0  0  0  0  0  0  0  0  0  0
  158.4856   46.6716  145.5775 C   0  0  0  0  0  0  0  0  0  0  0  0
  157.5414   45.9758  146.5440 C   0  0  1  0  0  0  0  0  0  0  0  0
  156.2683   46.5970  146.4384 O   0  0  0  0  0  0  0  0  0  0  0  0
  157.3134   44.4912  146.2896 C   0  0  1  0  0  0  0  0  0  0  0  0
  158.0497   43.7262  147.2325 O   0  0  0  0  0  0  0  0  0  0  0  0
  155.8412   44.3058  146.5814 C   0  0  1  0  0  0  0  0  0  0  0  0
  155.6627   43.9840  147.9622 O   0  0  0  0  0  0  0  0  0  0  0  0
  155.2125   45.6513  146.3632 C   0  0  2  0  0  0  0  0  0  0  0  0
  154.6281   45.7005  145.0020 N   0  0  0  0  0  0  0  0  0  0  0  0
  155.2420   46.1713  143.9025 C   0  0  0  0  0  0  0  0  0  0  0  0
  154.4241   46.0864  142.8259 N   0  0  0  0  0  0  0  0  0  0  0  0
  153.2578   45.5520  143.2299 C   0  0  0  0  0  0  0  0  0  0  0  0
  151.9686   45.1890  142.5959 C   0  0  0  0  0  0  0  0  0  0  0  0
  151.7887   45.3863  141.3701 O   0  0  0  0  0  0  0  0  0  0  0  0
  151.0148   44.6512  143.3755 N   0  0  0  0  0  0  0  0  0  0  0  0
  151.2123   44.4429  144.6910 C   0  0  0  0  0  0  0  0  0  0  0  0
  150.2189   43.8942  145.4255 N   0  0  0  0  0  0  0  0  0  0  0  0
  152.3627   44.7508  145.3318 N   0  0  0  0  0  0  0  0  0  0  0  0
  153.4023   45.2986  144.6668 C   0  0  0  0  0  0  0  0  0  0  0  0
  158.2685   42.1225  147.1037 P   0  0  2  0  0  0  0  0  0  0  0  0
  156.9376   41.4600  146.8433 O   0  0  0  0  0  0  0  0  0  0  0  0
  159.1217   41.7185  148.2915 O   0  0  0  0  0  0  0  0  0  0  0  0
  159.1430   42.0002  145.7510 O   0  0  0  0  0  0  0  0  0  0  0  0
  160.5484   42.2457  145.7826 C   0  0  0  0  0  0  0  0  0  0  0  0
  161.1393   42.5452  144.4014 C   0  0  1  0  0  0  0  0  0  0  0  0
  161.1965   41.3372  143.6397 O   0  0  0  0  0  0  0  0  0  0  0  0
  160.3555   43.5566  143.5678 C   0  0  1  0  0  0  0  0  0  0  0  0
  160.8622   44.8830  143.7093 O   0  0  0  0  0  0  0  0  0  0  0  0
  160.5507   43.0325  142.1573 C   0  0  1  0  0  0  0  0  0  0  0  0
  161.7561   43.5480  141.5853 O   0  0  0  0  0  0  0  0  0  0  0  0
  160.7222   41.5351  142.3052 C   0  0  2  0  0  0  0  0  0  0  0  0
  159.4040   40.8685  142.1632 N   0  0  0  0  0  0  0  0  0  0  0  0
  158.8443   40.0339  143.0613 C   0  0  0  0  0  0  0  0  0  0  0  0
  157.6224   39.5930  142.6517 N   0  0  0  0  0  0  0  0  0  0  0  0
  157.3765   40.1599  141.4598 C   0  0  0  0  0  0  0  0  0  0  0  0
  156.2782   40.1195  140.4609 C   0  0  0  0  0  0  0  0  0  0  0  0
  155.2387   39.4481  140.6361 O   0  0  0  0  0  0  0  0  0  0  0  0
  156.4226   40.8551  139.3574 N   0  0  0  0  0  0  0  0  0  0  0  0
  157.5164   41.5973  139.1256 C   0  0  0  0  0  0  0  0  0  0  0  0
  157.5625   42.2872  137.9762 N   0  0  0  0  0  0  0  0  0  0  0  0
  158.5616   41.6790  139.9819 N   0  0  0  0  0  0  0  0  0  0  0  0
  158.5531   40.9950  141.1452 C   0  0  0  0  0  0  0  0  0  0  0  0
  1  3  2  6  0  0  0
  1 32  1  0  0  0  0
  1  2  1  0  0  0  0
  1  4  1  0  0  0  0
  4  5  1  0  0  0  0
  6  5  1  6  0  0  0
  7  6  1  0  0  0  0
  8  6  1  0  0  0  0
  8 10  1  0  0  0  0
  8  9  1  1  0  0  0
 10 11  1  1  0  0  0
 12 13  1  6  0  0  0
 12  7  1  0  0  0  0
 12 10  1  0  0  0  0
 14 13  1  0  0  0  0
 15 16  1  0  0  0  0
 15 14  2  0  0  0  0
 16 23  2  0  0  0  0
 17 16  1  0  0  0  0
 17 19  1  0  0  0  0
 18 17  2  0  0  0  0
 19 20  2  0  0  0  0
 20 22  1  0  0  0  0
 20 21  1  0  0  0  0
 23 13  1  0  0  0  0
 23 22  1  0  0  0  0
 24 25  2  6  0  0  0
 24  9  1  0  0  0  0
 24 26  1  0  0  0  0
 27 28  1  0  0  0  0
 27 24  1  0  0  0  0
 29 30  1  6  0  0  0
 29 28  1  0  0  0  0
 31 32  1  6  0  0  0
 31 29  1  0  0  0  0
 33 34  1  1  0  0  0
 33 35  1  0  0  0  0
 33 31  1  0  0  0  0
 35 36  1  1  0  0  0
 35 30  1  0  0  0  0
 36 37  1  0  0  0  0
 38 37  2  0  0  0  0
 39 38  1  0  0  0  0
 40 41  2  0  0  0  0
 40 39  1  0  0  0  0
 42 40  1  0  0  0  0
 43 42  2  0  0  0  0
 43 45  1  0  0  0  0
 44 43  1  0  0  0  0
 45 46  1  0  0  0  0
 46 39  2  0  0  0  0
 46 36  1  0  0  0  0
M  END
>  <CHROM.1>
21.59118979,-9.95601421,157.27350426,43.56571867,143.87522989,-0.40463227
-0.18854486,1.02345784

>  <Name>
lig.pdb

>  <RI>
0

>  <Rbt.Current_Directory>
/home/itssahil/PROJECTS/Mol_Feturizer/New_Systems/rnas/4yb0

>  <Rbt.Executable>
rbdock ($Id: //depot/dev/client3/rdock/2013.1/src/exe/rbdock.cxx#4 $)

>  <Rbt.Library>
libRbt.so (2013.1, Build901 2013/11/27)

>  <Rbt.Parameter_File>
/export/apps/rDock/src/rDock_2013.1_src/data/scripts/dock_solv.prm

>  <Rbt.Receptor>
prm/pocket_docking_4.prm

>  <SCORE>
-53.5467

>  <SCORE.INTER>
-53.4361

>  <SCORE.INTER.CONST>
1

>  <SCORE.INTER.POLAR>
0

>  <SCORE.INTER.ROT>
2

>  <SCORE.INTER.SOLV>
31.6518

>  <SCORE.INTER.VDW>
-51.108

>  <SCORE.INTER.norm>
-1.16165

>  <SCORE.INTRA>
-0.110608

>  <SCORE.INTRA.DIHEDRAL>
-0.0145939

>  <SCORE.INTRA.DIHEDRAL.0>
4.74153

>  <SCORE.INTRA.POLAR>
0

>  <SCORE.INTRA.POLAR.0>
0

>  <SCORE.INTRA.REPUL>
0

>  <SCORE.INTRA.REPUL.0>
0

>  <SCORE.INTRA.SOLV>
0.00765721

>  <SCORE.INTRA.SOLV.lig_0>
-60.4375

>  <SCORE.INTRA.VDW>
-0.107139

>  <SCORE.INTRA.VDW.0>
-1.83689

>  <SCORE.INTRA.norm>
-0.00240451

>  <SCORE.RESTR>
0

>  <SCORE.RESTR.CAVITY>
0

>  <SCORE.RESTR.norm>
0

>  <SCORE.SYSTEM>
0

>  <SCORE.SYSTEM.CONST>
0

>  <SCORE.SYSTEM.DIHEDRAL>
0

>  <SCORE.SYSTEM.SOLV>
0

>  <SCORE.SYSTEM.norm>
0

>  <SCORE.heavy>
46

>  <SCORE.norm>
-1.16406

>  <RMSD>
0.382

$$$$
lig.pdb
 OpenBabel11021811523D
libRbt.so/2013.1/901 2013/11/27
 46 52  0  0  0  0  0  0  0  0999 V2000
  158.4182   42.2404  147.4479 P   0  0  2  0  0  0  0  0  0  0  0  0
  159.3285   41.5806  148.4606 O   0  0  0  0  0  0  0  0  0  0  0  0
  157.0544   41.6269  147.2617 O   0  0  0  0  0  0  0  0  0  0  0  0
  159.1252   42.3456  146.0077 O   0  0  0  0  0  0  0  0  0  0  0  0
  160.5038   42.0463  145.8317 C   0  0  0  0  0  0  0  0  0  0  0  0
  160.9894   42.5964  144.5008 C   0  0  1  0  0  0  0  0  0  0  0  0
  161.0901   41.5128  143.5877 O   0  0  0  0  0  0  0  0  0  0  0  0
  160.0804   43.6259  143.8415 C   0  0  1  0  0  0  0  0  0  0  0  0
  160.6254   44.9256  144.0153 O   0  0  0  0  0  0  0  0  0  0  0  0
  160.1594   43.2761  142.3724 C   0  0  1  0  0  0  0  0  0  0  0  0
  161.2330   43.9972  141.7646 O   0  0  0  0  0  0  0  0  0  0  0  0
  160.5280   41.8218  142.3215 C   0  0  2  0  0  0  0  0  0  0  0  0
  159.2987   41.0142  142.1388 N   0  0  0  0  0  0  0  0  0  0  0  0
  158.8287   40.0966  143.0017 C   0  0  0  0  0  0  0  0  0  0  0  0
  157.6943   39.5301  142.5249 N   0  0  0  0  0  0  0  0  0  0  0  0
  157.4202   40.0869  141.3317 C   0  0  0  0  0  0  0  0  0  0  0  0
  156.3672   39.9441  140.2989 C   0  0  0  0  0  0  0  0  0  0  0  0
  155.4352   39.1190  140.4557 O   0  0  0  0  0  0  0  0  0  0  0  0
  156.4517   40.7198  139.2045 N   0  0  0  0  0  0  0  0  0  0  0  0
  157.4549   41.6027  139.0404 C   0  0  0  0  0  0  0  0  0  0  0  0
  157.4865   42.3604  137.9214 N   0  0  0  0  0  0  0  0  0  0  0  0
  158.4465   41.7829  139.9420 N   0  0  0  0  0  0  0  0  0  0  0  0
  158.4830   41.0666  141.0859 C   0  0  0  0  0  0  0  0  0  0  0  0
  159.8045   46.2879  143.6893 P   0  0  2  0  0  0  0  0  0  0  0  0
  159.1864   46.1777  142.3167 O   0  0  0  0  0  0  0  0  0  0  0  0
  160.7376   47.4333  144.0348 O   0  0  0  0  0  0  0  0  0  0  0  0
  158.6025   46.2339  144.7671 O   0  0  0  0  0  0  0  0  0  0  0  0
  158.8342   46.6305  146.1182 C   0  0  0  0  0  0  0  0  0  0  0  0
  157.7776   46.0998  147.0921 C   0  0  1  0  0  0  0  0  0  0  0  0
  156.5599   46.8257  146.9100 O   0  0  0  0  0  0  0  0  0  0  0  0
  157.4375   44.6195  146.9341 C   0  0  1  0  0  0  0  0  0  0  0  0
  158.1933   43.7932  147.8185 O   0  0  0  0  0  0  0  0  0  0  0  0
  155.9584   44.5904  147.2712 C   0  0  1  0  0  0  0  0  0  0  0  0
  155.7605   44.4494  148.6807 O   0  0  0  0  0  0  0  0  0  0  0  0
  155.4285   45.9518  146.8720 C   0  0  2  0  0  0  0  0  0  0  0  0
  154.9150   45.8958  145.4809 N   0  0  0  0  0  0  0  0  0  0  0  0
  155.5733   46.3158  144.3824 C   0  0  0  0  0  0  0  0  0  0  0  0
  154.8446   46.1203  143.2483 N   0  0  0  0  0  0  0  0  0  0  0  0
  153.6851   45.5523  143.6163 C   0  0  0  0  0  0  0  0  0  0  0  0
  152.4528   45.0908  142.9277 C   0  0  0  0  0  0  0  0  0  0  0  0
  152.3122   45.1625  141.6879 O   0  0  0  0  0  0  0  0  0  0  0  0
  151.4876   44.5625  143.6820 N   0  0  0  0  0  0  0  0  0  0  0  0
  151.5929   44.4576  145.0157 C   0  0  0  0  0  0  0  0  0  0  0  0
  150.5555   43.9232  145.6771 N   0  0  0  0  0  0  0  0  0  0  0  0
  152.6783   44.8629  145.7156 N   0  0  0  0  0  0  0  0  0  0  0  0
  153.7387   45.4100  145.0851 C   0  0  0  0  0  0  0  0  0  0  0  0
  1  3  2  6  0  0  0
  1 32  1  0  0  0  0
  1  2  1  0  0  0  0
  1  4  1  0  0  0  0
  4  5  1  0  0  0  0
  6  5  1  1  0  0  0
  7  6  1  0  0  0  0
  8  6  1  0  0  0  0
  8 10  1  0  0  0  0
  8  9  1  6  0  0  0
 10 11  1  6  0  0  0
 12 13  1  1  0  0  0
 12  7  1  0  0  0  0
 12 10  1  0  0  0  0
 14 13  1  0  0  0  0
 15 16  1  0  0  0  0
 15 14  2  0  0  0  0
 16 23  2  0  0  0  0
 17 16  1  0  0  0  0
 17 19  1  0  0  0  0
 18 17  2  0  0  0  0
 19 20  2  0  0  0  0
 20 22  1  0  0  0  0
 20 21  1  0  0  0  0
 23 13  1  0  0  0  0
 23 22  1  0  0  0  0
 24 25  2  6  0  0  0
 24  9  1  0  0  0  0
 24 26  1  0  0  0  0
 27 28  1  0  0  0  0
 27 24  1  0  0  0  0
 29 30  1  6  0  0  0
 29 28  1  0  0  0  0
 31 32  1  1  0  0  0
 31 29  1  0  0  0  0
 33 34  1  1  0  0  0
 33 35  1  0  0  0  0
 33 31  1  0  0  0  0
 35 36  1  6  0  0  0
 35 30  1  0  0  0  0
 36 37  1  0  0  0  0
 38 37  2  0  0  0  0
 39 38  1  0  0  0  0
 40 41  2  0  0  0  0
 40 39  1  0  0  0  0
 42 40  1  0  0  0  0
 43 42  2  0  0  0  0
 43 45  1  0  0  0  0
 44 43  1  0  0  0  0
 45 46  1  0  0  0  0
 46 39  2  0  0  0  0
 46 36  1  0  0  0  0
M  END
>  <CHROM.1>
-2.82694101,14.99472007,157.35834114,43.65440174,144.12755143,-2.25789238
0.17853739,-2.11582977

>  <Name>
lig.pdb

>  <RI>
0

>  <Rbt.Current_Directory>
/home/itssahil/PROJECTS/Mol_Feturizer/New_Systems/rnas/4yb0

>  <Rbt.Executable>
rbdock ($Id: //depot/dev/client3/rdock/2013.1/src/exe/rbdock.cxx#4 $)

>  <Rbt.Library>
libRbt.so (2013.1, Build901 2013/11/27)

>  <Rbt.Parameter_File>
/export/apps/rDock/src/rDock_2013.1_src/data/scripts/dock_solv.prm

>  <Rbt.Receptor>
prm/pocket_docking_4.prm

>  <SCORE>
-50.4888

>  <SCORE.INTER>
-50.5302

>  <SCORE.INTER.CONST>
1

>  <SCORE.INTER.POLAR>
0

>  <SCORE.INTER.ROT>
2

>  <SCORE.INTER.SOLV>
30.2391

>  <SCORE.INTER.VDW>
-48.6998

>  <SCORE.INTER.norm>
-1.09848

>  <SCORE.INTRA>
0.0414703

>  <SCORE.INTRA.DIHEDRAL>
0.105727

>  <SCORE.INTRA.DIHEDRAL.0>
4.74153

>  <SCORE.INTRA.POLAR>
0

>  <SCORE.INTRA.POLAR.0>
0

>  <SCORE.INTRA.REPUL>
0

>  <SCORE.INTRA.REPUL.0>
0

>  <SCORE.INTRA.SOLV>
0.127659

>  <SCORE.INTRA.SOLV.lig_0>
-60.4375

>  <SCORE.INTRA.VDW>
-0.0752223

>  <SCORE.INTRA.VDW.0>
-1.83689

>  <SCORE.INTRA.norm>
0.000901529

>  <SCORE.RESTR>
0

>  <SCORE.RESTR.CAVITY>
0

>  <SCORE.RESTR.norm>
0

>  <SCORE.SYSTEM>
0

>  <SCORE.SYSTEM.CONST>
0

>  <SCORE.SYSTEM.DIHEDRAL>
0

>  <SCORE.SYSTEM.SOLV>
0

>  <SCORE.SYSTEM.norm>
0

>  <SCORE.heavy>
46

>  <SCORE.norm>
-1.09758

>  <RMSD>
0.390

$$$$
lig.pdb
 OpenBabel11021811523D
libRbt.so/2013.1/901 2013/11/27
 46 52  0  0  0  0  0  0  0  0999 V2000
  158.4290   42.2502  147.4826 P   0  0  2  0  0  0  0  0  0  0  0  0
  159.3332   41.5764  148.4915 O   0  0  0  0  0  0  0  0  0  0  0  0
  157.0586   41.6520  147.2951 O   0  0  0  0  0  0  0  0  0  0  0  0
  159.1356   42.3542  146.0421 O   0  0  0  0  0  0  0  0  0  0  0  0
  160.5108   42.0411  145.8634 C   0  0  0  0  0  0  0  0  0  0  0  0
  161.0010   42.5918  144.5345 C   0  0  1  0  0  0  0  0  0  0  0  0
  161.0893   41.5112  143.6166 O   0  0  0  0  0  0  0  0  0  0  0  0
  160.1023   43.6337  143.8806 C   0  0  1  0  0  0  0  0  0  0  0  0
  160.6612   44.9268  144.0594 O   0  0  0  0  0  0  0  0  0  0  0  0
  160.1761   43.2895  142.4099 C   0  0  1  0  0  0  0  0  0  0  0  0
  161.2567   44.0018  141.8041 O   0  0  0  0  0  0  0  0  0  0  0  0
  160.5293   41.8316  142.3524 C   0  0  2  0  0  0  0  0  0  0  0  0
  159.2913   41.0378  142.1674 N   0  0  0  0  0  0  0  0  0  0  0  0
  158.8061   40.1303  143.0324 C   0  0  0  0  0  0  0  0  0  0  0  0
  157.6673   39.5749  142.5527 N   0  0  0  0  0  0  0  0  0  0  0  0
  157.4060   40.1289  141.3553 C   0  0  0  0  0  0  0  0  0  0  0  0
  156.3566   39.9934  140.3179 C   0  0  0  0  0  0  0  0  0  0  0  0
  155.4140   39.1804  140.4740 O   0  0  0  0  0  0  0  0  0  0  0  0
  156.4559   40.7625  139.2200 N   0  0  0  0  0  0  0  0  0  0  0  0
  157.4704   41.6325  139.0566 C   0  0  0  0  0  0  0  0  0  0  0  0
  157.5168   42.3841  137.9340 N   0  0  0  0  0  0  0  0  0  0  0  0
  158.4596   41.8054  139.9624 N   0  0  0  0  0  0  0  0  0  0  0  0
  158.4817   41.0946  141.1101 C   0  0  0  0  0  0  0  0  0  0  0  0
  159.8543   46.2991  143.7401 P   0  0  2  0  0  0  0  0  0  0  0  0
  159.2339   46.2014  142.3677 O   0  0  0  0  0  0  0  0  0  0  0  0
  160.7999   47.4330  144.0896 O   0  0  0  0  0  0  0  0  0  0  0  0
  158.6529   46.2531  144.8189 O   0  0  0  0  0  0  0  0  0  0  0  0
  158.8901   46.6414  146.1714 C   0  0  0  0  0  0  0  0  0  0  0  0
  157.8289   46.1177  147.1441 C   0  0  1  0  0  0  0  0  0  0  0  0
  156.6188   46.8572  146.9663 O   0  0  0  0  0  0  0  0  0  0  0  0
  157.4730   44.6417  146.9800 C   0  0  1  0  0  0  0  0  0  0  0  0
  158.2209   43.8037  147.8601 O   0  0  0  0  0  0  0  0  0  0  0  0
  155.9940   44.6269  147.3185 C   0  0  1  0  0  0  0  0  0  0  0  0
  155.7960   44.4818  148.7276 O   0  0  0  0  0  0  0  0  0  0  0  0
  155.4782   45.9955  146.9258 C   0  0  2  0  0  0  0  0  0  0  0  0
  154.9627   45.9509  145.5349 N   0  0  0  0  0  0  0  0  0  0  0  0
  155.6104   46.4003  144.4417 C   0  0  0  0  0  0  0  0  0  0  0  0
  154.8831   46.2082  143.3062 N   0  0  0  0  0  0  0  0  0  0  0  0
  153.7355   45.6125  143.6676 C   0  0  0  0  0  0  0  0  0  0  0  0
  152.5108   45.1379  142.9744 C   0  0  0  0  0  0  0  0  0  0  0  0
  152.3660   45.2259  141.7361 O   0  0  0  0  0  0  0  0  0  0  0  0
  151.5575   44.5798  143.7223 N   0  0  0  0  0  0  0  0  0  0  0  0
  151.6678   44.4565  145.0541 C   0  0  0  0  0  0  0  0  0  0  0  0
  150.6423   43.8921  145.7091 N   0  0  0  0  0  0  0  0  0  0  0  0
  152.7468   44.8718  145.7581 N   0  0  0  0  0  0  0  0  0  0  0  0
  153.7951   45.4488  145.1340 C   0  0  0  0  0  0  0  0  0  0  0  0
  1  3  2  6  0  0  0
  1 32  1  0  0  0  0
  1  2  1  0  0  0  0
  1  4  1  0  0  0  0
  4  5  1  0  0  0  0
  6  5  1  1  0  0  0
  7  6  1  0  0  0  0
  8  6  1  0  0  0  0
  8 10  1  0  0  0  0
  8  9  1  6  0  0  0
 10 11  1  6  0  0  0
 12 13  1  1  0  0  0
 12  7  1  0  0  0  0
 12 10  1  0  0  0  0
 14 13  1  0  0  0  0
 15 16  1  0  0  0  0
 15 14  2  0  0  0  0
 16 23  2  0  0  0  0
 17 16  1  0  0  0  0
 17 19  1  0  0  0  0
 18 17  2  0  0  0  0
 19 20  2  0  0  0  0
 20 22  1  0  0  0  0
 20 21  1  0  0  0  0
 23 13  1  0  0  0  0
 23 22  1  0  0  0  0
 24 25  2  6  0  0  0
 24  9  1  0  0  0  0
 24 26  1  0  0  0  0
 27 28  1  0  0  0  0
 27 24  1  0  0  0  0
 29 30  1  6  0  0  0
 29 28  1  0  0  0  0
 31 32  1  1  0  0  0
 31 29  1  0  0  0  0
 33 34  1  1  0  0  0
 33 35  1  0  0  0  0
 33 31  1  0  0  0  0
 35 36  1  6  0  0  0
 35 30  1  0  0  0  0
 36 37  1  0  0  0  0
 38 37  2  0  0  0  0
 39 38  1  0  0  0  0
 40 41  2  0  0  0  0
 40 39  1  0  0  0  0
 42 40  1  0  0  0  0
 43 42  2  0  0  0  0
 43 45  1  0  0  0  0
 44 43  1  0  0  0  0
 45 46  1  0  0  0  0
 46 39  2  0  0  0  0
 46 36  1  0  0  0  0
M  END
>  <CHROM.1>
-2.18104859,13.17498360,157.38691332,43.67830809,144.16663216,-2.22444044
0.17869754,-2.11477697

>  <Name>
lig.pdb

>  <RI>
0

>  <Rbt.Current_Directory>
/home/itssahil/PROJECTS/Mol_Feturizer/New_Systems/rnas/4yb0

>  <Rbt.Executable>
rbdock ($Id: //depot/dev/client3/rdock/2013.1/src/exe/rbdock.cxx#4 $)

>  <Rbt.Library>
libRbt.so (2013.1, Build901 2013/11/27)

>  <Rbt.Parameter_File>
/export/apps/rDock/src/rDock_2013.1_src/data/scripts/dock_solv.prm

>  <Rbt.Receptor>
prm/pocket_docking_4.prm

>  <SCORE>
-50.502

>  <SCORE.INTER>
-50.5385

>  <SCORE.INTER.CONST>
1

>  <SCORE.INTER.POLAR>
0

>  <SCORE.INTER.ROT>
2

>  <SCORE.INTER.SOLV>
29.8064

>  <SCORE.INTER.VDW>
-48.5611

>  <SCORE.INTER.norm>
-1.09866

>  <SCORE.INTRA>
0.0365345

>  <SCORE.INTRA.DIHEDRAL>
0.0998526

>  <SCORE.INTRA.DIHEDRAL.0>
4.74153

>  <SCORE.INTRA.POLAR>
0

>  <SCORE.INTRA.POLAR.0>
0

>  <SCORE.INTRA.REPUL>
0

>  <SCORE.INTRA.REPUL.0>
0

>  <SCORE.INTRA.SOLV>
0.11997

>  <SCORE.INTRA.SOLV.lig_0>
-60.4375

>  <SCORE.INTRA.VDW>
-0.0733766

>  <SCORE.INTRA.VDW.0>
-1.83689

>  <SCORE.INTRA.norm>
0.000794229

>  <SCORE.RESTR>
0

>  <SCORE.RESTR.CAVITY>
0

>  <SCORE.RESTR.norm>
0

>  <SCORE.SYSTEM>
0

>  <SCORE.SYSTEM.CONST>
0

>  <SCORE.SYSTEM.DIHEDRAL>
0

>  <SCORE.SYSTEM.SOLV>
0

>  <SCORE.SYSTEM.norm>
0

>  <SCORE.heavy>
46

>  <SCORE.norm>
-1.09787

>  <RMSD>
0.393

$$$$
lig.pdb
 OpenBabel11021811523D
libRbt.so/2013.1/901 2013/11/27
 46 52  0  0  0  0  0  0  0  0999 V2000
  158.4002   42.2104  147.4287 P   0  0  2  0  0  0  0  0  0  0  0  0
  159.2964   41.5216  148.4346 O   0  0  0  0  0  0  0  0  0  0  0  0
  157.0311   41.6157  147.2219 O   0  0  0  0  0  0  0  0  0  0  0  0
  159.1180   42.3350  145.9954 O   0  0  0  0  0  0  0  0  0  0  0  0
  160.4944   42.0239  145.8228 C   0  0  0  0  0  0  0  0  0  0  0  0
  160.9951   42.5937  144.5058 C   0  0  1  0  0  0  0  0  0  0  0  0
  161.0900   41.5265  143.5730 O   0  0  0  0  0  0  0  0  0  0  0  0
  160.1018   43.6454  143.8602 C   0  0  1  0  0  0  0  0  0  0  0  0
  160.6598   44.9355  144.0622 O   0  0  0  0  0  0  0  0  0  0  0  0
  160.1869   43.3227  142.3853 C   0  0  1  0  0  0  0  0  0  0  0  0
  161.2724   44.0432  141.7983 O   0  0  0  0  0  0  0  0  0  0  0  0
  160.5399   41.8656  142.3092 C   0  0  2  0  0  0  0  0  0  0  0  0
  159.3031   41.0752  142.1031 N   0  0  0  0  0  0  0  0  0  0  0  0
  158.8015   40.1679  142.9590 C   0  0  0  0  0  0  0  0  0  0  0  0
  157.6693   39.6161  142.4602 N   0  0  0  0  0  0  0  0  0  0  0  0
  157.4290   40.1721  141.2594 C   0  0  0  0  0  0  0  0  0  0  0  0
  156.3962   40.0406  140.2048 C   0  0  0  0  0  0  0  0  0  0  0  0
  155.4491   39.2298  140.3446 O   0  0  0  0  0  0  0  0  0  0  0  0
  156.5154   40.8107  139.1097 N   0  0  0  0  0  0  0  0  0  0  0  0
  157.5346   41.6783  138.9639 C   0  0  0  0  0  0  0  0  0  0  0  0
  157.6012   42.4311  137.8431 N   0  0  0  0  0  0  0  0  0  0  0  0
  158.5093   41.8476  139.8859 N   0  0  0  0  0  0  0  0  0  0  0  0
  158.5110   41.1353  141.0329 C   0  0  0  0  0  0  0  0  0  0  0  0
  159.8560   46.3127  143.7568 P   0  0  2  0  0  0  0  0  0  0  0  0
  159.2461   46.2353  142.3783 O   0  0  0  0  0  0  0  0  0  0  0  0
  160.7992   47.4410  144.1300 O   0  0  0  0  0  0  0  0  0  0  0  0
  158.6462   46.2516  144.8255 O   0  0  0  0  0  0  0  0  0  0  0  0
  158.8732   46.6201  146.1853 C   0  0  0  0  0  0  0  0  0  0  0  0
  157.8042   46.0827  147.1420 C   0  0  1  0  0  0  0  0  0  0  0  0
  156.5959   46.8253  146.9657 O   0  0  0  0  0  0  0  0  0  0  0  0
  157.4491   44.6095  146.9537 C   0  0  1  0  0  0  0  0  0  0  0  0
  158.1898   43.7584  147.8272 O   0  0  0  0  0  0  0  0  0  0  0  0
  155.9675   44.5904  147.2805 C   0  0  1  0  0  0  0  0  0  0  0  0
  155.7586   44.4250  148.6858 O   0  0  0  0  0  0  0  0  0  0  0  0
  155.4553   45.9649  146.9038 C   0  0  2  0  0  0  0  0  0  0  0  0
  154.9506   45.9408  145.5085 N   0  0  0  0  0  0  0  0  0  0  0  0
  155.5984   46.4235  144.4297 C   0  0  0  0  0  0  0  0  0  0  0  0
  154.8825   46.2432  143.2851 N   0  0  0  0  0  0  0  0  0  0  0  0
  153.7425   45.6213  143.6255 C   0  0  0  0  0  0  0  0  0  0  0  0
  152.5308   45.1413  142.9135 C   0  0  0  0  0  0  0  0  0  0  0  0
  152.3934   45.2527  141.6762 O   0  0  0  0  0  0  0  0  0  0  0  0
  151.5816   44.5521  143.6425 N   0  0  0  0  0  0  0  0  0  0  0  0
  151.6844   44.4029  144.9722 C   0  0  0  0  0  0  0  0  0  0  0  0
  150.6637   43.8082  145.6077 N   0  0  0  0  0  0  0  0  0  0  0  0
  152.7513   44.8211  145.6927 N   0  0  0  0  0  0  0  0  0  0  0  0
  153.7943   45.4281  145.0885 C   0  0  0  0  0  0  0  0  0  0  0  0
  1  3  2  6  0  0  0
  1 32  1  0  0  0  0
  1  2  1  0  0  0  0
  1  4  1  0  0  0  0
  4  5  1  0  0  0  0
  6  5  1  1  0  0  0
  7  6  1  0  0  0  0
  8  6  1  0  0  0  0
  8 10  1  0  0  0  0
  8  9  1  6  0  0  0
 10 11  1  1  0  0  0
 12 13  1  1  0  0  0
 12  7  1  0  0  0  0
 12 10  1  0  0  0  0
 14 13  1  0  0  0  0
 15 16  1  0  0  0  0
 15 14  2  0  0  0  0
 16 23  2  0  0  0  0
 17 16  1  0  0  0  0
 17 19  1  0  0  0  0
 18 17  2  0  0  0  0
 19 20  2  0  0  0  0
 20 22  1  0  0  0  0
 20 21  1  0  0  0  0
 23 13  1  0  0  0  0
 23 22  1  0  0  0  0
 24 25  2  6  0  0  0
 24  9  1  0  0  0  0
 24 26  1  0  0  0  0
 27 28  1  0  0  0  0
 27 24  1  0  0  0  0
 29 30  1  6  0  0  0
 29 28  1  0  0  0  0
 31 32  1  1  0  0  0
 31 29  1  0  0  0  0
 33 34  1  1  0  0  0
 33 35  1  0  0  0  0
 33 31  1  0  0  0  0
 35 36  1  6  0  0  0
 35 30  1  0  0  0  0
 36 37  1  0  0  0  0
 38 37  2  0  0  0  0
 39 38  1  0  0  0  0
 40 41  2  0  0  0  0
 40 39  1  0  0  0  0
 42 40  1  0  0  0  0
 43 42  2  0  0  0  0
 43 45  1  0  0  0  0
 44 43  1  0  0  0  0
 45 46  1  0  0  0  0
 46 39  2  0  0  0  0
 46 36  1  0  0  0  0
M  END
>  <CHROM.1>
-1.26264716,12.14070519,157.38949517,43.67862517,144.12293589,-2.20908638
0.17780219,-2.10110775

>  <Name>
lig.pdb

>  <RI>
0

>  <Rbt.Current_Directory>
/home/itssahil/PROJECTS/Mol_Feturizer/New_Systems/rnas/4yb0

>  <Rbt.Executable>
rbdock ($Id: //depot/dev/client3/rdock/2013.1/src/exe/rbdock.cxx#4 $)

>  <Rbt.Library>
libRbt.so (2013.1, Build901 2013/11/27)

>  <Rbt.Parameter_File>
/export/apps/rDock/src/rDock_2013.1_src/data/scripts/dock_solv.prm

>  <Rbt.Receptor>
prm/pocket_docking_3.prm

>  <SCORE>
-50.6694

>  <SCORE.INTER>
-50.6979

>  <SCORE.INTER.CONST>
1

>  <SCORE.INTER.POLAR>
0

>  <SCORE.INTER.ROT>
2

>  <SCORE.INTER.SOLV>
29.9749

>  <SCORE.INTER.VDW>
-48.7236

>  <SCORE.INTER.norm>
-1.10213

>  <SCORE.INTRA>
0.0285199

>  <SCORE.INTRA.DIHEDRAL>
0.0950397

>  <SCORE.INTRA.DIHEDRAL.0>
4.74153

>  <SCORE.INTRA.POLAR>
0

>  <SCORE.INTRA.POLAR.0>
0

>  <SCORE.INTRA.REPUL>
0

>  <SCORE.INTRA.REPUL.0>
0

>  <SCORE.INTRA.SOLV>
0.115224

>  <SCORE.INTRA.SOLV.lig_0>
-60.4375

>  <SCORE.INTRA.VDW>
-0.076612

>  <SCORE.INTRA.VDW.0>
-1.83689

>  <SCORE.INTRA.norm>
0.000619998

>  <SCORE.RESTR>
0

>  <SCORE.RESTR.CAVITY>
0

>  <SCORE.RESTR.norm>
0

>  <SCORE.SYSTEM>
0

>  <SCORE.SYSTEM.CONST>
0

>  <SCORE.SYSTEM.DIHEDRAL>
0

>  <SCORE.SYSTEM.SOLV>
0

>  <SCORE.SYSTEM.norm>
0

>  <SCORE.heavy>
46

>  <SCORE.norm>
-1.10151

>  <RMSD>
0.394

$$$$
lig.pdb
 OpenBabel11021811523D
libRbt.so/2013.1/901 2013/11/27
 46 52  0  0  0  0  0  0  0  0999 V2000
  159.7314   46.2568  143.5046 P   0  0  2  0  0  0  0  0  0  0  0  0
  160.3848   47.5833  143.8256 O   0  0  0  0  0  0  0  0  0  0  0  0
  159.2462   46.0650  142.0907 O   0  0  0  0  0  0  0  0  0  0  0  0
  158.5093   45.9503  144.5034 O   0  0  0  0  0  0  0  0  0  0  0  0
  158.2698   46.7505  145.6538 C   0  0  0  0  0  0  0  0  0  0  0  0
  157.3328   46.0252  146.6057 C   0  0  1  0  0  0  0  0  0  0  0  0
  156.0416   46.6033  146.4769 O   0  0  0  0  0  0  0  0  0  0  0  0
  157.1589   44.5334  146.3508 C   0  0  1  0  0  0  0  0  0  0  0  0
  157.9040   43.7949  147.3078 O   0  0  0  0  0  0  0  0  0  0  0  0
  155.6889   44.2994  146.6178 C   0  0  1  0  0  0  0  0  0  0  0  0
  155.4975   43.9741  147.9961 O   0  0  0  0  0  0  0  0  0  0  0  0
  155.0195   45.6228  146.3858 C   0  0  2  0  0  0  0  0  0  0  0  0
  154.4572   45.6502  145.0147 N   0  0  0  0  0  0  0  0  0  0  0  0
  155.0669   46.1547  143.9279 C   0  0  0  0  0  0  0  0  0  0  0  0
  154.2729   46.0356  142.8368 N   0  0  0  0  0  0  0  0  0  0  0  0
  153.1267   45.4443  143.2182 C   0  0  0  0  0  0  0  0  0  0  0  0
  151.8675   45.0230  142.5603 C   0  0  0  0  0  0  0  0  0  0  0  0
  151.6999   45.2170  141.3322 O   0  0  0  0  0  0  0  0  0  0  0  0
  150.9272   44.4368  143.3209 N   0  0  0  0  0  0  0  0  0  0  0  0
  151.1114   44.2322  144.6390 C   0  0  0  0  0  0  0  0  0  0  0  0
  150.1328   43.6334  145.3538 N   0  0  0  0  0  0  0  0  0  0  0  0
  152.2344   44.5919  145.3010 N   0  0  0  0  0  0  0  0  0  0  0  0
  153.2580   45.1917  144.6565 C   0  0  0  0  0  0  0  0  0  0  0  0
  158.1784   42.1993  147.1864 P   0  0  2  0  0  0  0  0  0  0  0  0
  156.8749   41.4923  146.9048 O   0  0  0  0  0  0  0  0  0  0  0  0
  159.0240   41.8260  148.3895 O   0  0  0  0  0  0  0  0  0  0  0  0
  159.0795   42.1039  145.8492 O   0  0  0  0  0  0  0  0  0  0  0  0
  160.4752   42.3963  145.9042 C   0  0  0  0  0  0  0  0  0  0  0  0
  161.0794   42.7131  144.5326 C   0  0  1  0  0  0  0  0  0  0  0  0
  161.1899   41.5063  143.7748 O   0  0  0  0  0  0  0  0  0  0  0  0
  160.2767   43.6963  143.6834 C   0  0  1  0  0  0  0  0  0  0  0  0
  160.7364   45.0391  143.8306 O   0  0  0  0  0  0  0  0  0  0  0  0
  160.5135   43.1766  142.2777 C   0  0  1  0  0  0  0  0  0  0  0  0
  161.7107   43.7311  141.7253 O   0  0  0  0  0  0  0  0  0  0  0  0
  160.7323   41.6860  142.4319 C   0  0  2  0  0  0  0  0  0  0  0  0
  159.4397   40.9756  142.2689 N   0  0  0  0  0  0  0  0  0  0  0  0
  158.9316   40.0625  143.1202 C   0  0  0  0  0  0  0  0  0  0  0  0
  157.7209   39.5983  142.7032 N   0  0  0  0  0  0  0  0  0  0  0  0
  157.4295   40.2296  141.5548 C   0  0  0  0  0  0  0  0  0  0  0  0
  156.3147   40.2075  140.5738 C   0  0  0  0  0  0  0  0  0  0  0  0
  155.3068   39.4835  140.7222 O   0  0  0  0  0  0  0  0  0  0  0  0
  156.4079   41.0176  139.5180 N   0  0  0  0  0  0  0  0  0  0  0  0
  157.4660   41.8181  139.3166 C   0  0  0  0  0  0  0  0  0  0  0  0
  157.4620   42.5814  138.2137 N   0  0  0  0  0  0  0  0  0  0  0  0
  158.5234   41.8882  140.1589 N   0  0  0  0  0  0  0  0  0  0  0  0
  158.5649   41.1314  141.2755 C   0  0  0  0  0  0  0  0  0  0  0  0
  1  3  2  6  0  0  0
  1 32  1  0  0  0  0
  1  2  1  0  0  0  0
  1  4  1  0  0  0  0
  4  5  1  0  0  0  0
  6  5  1  6  0  0  0
  7  6  1  0  0  0  0
  8  6  1  0  0  0  0
  8 10  1  0  0  0  0
  8  9  1  1  0  0  0
 10 11  1  1  0  0  0
 12 13  1  6  0  0  0
 12  7  1  0  0  0  0
 12 10  1  0  0  0  0
 14 13  1  0  0  0  0
 15 16  1  0  0  0  0
 15 14  2  0  0  0  0
 16 23  2  0  0  0  0
 17 16  1  0  0  0  0
 17 19  1  0  0  0  0
 18 17  2  0  0  0  0
 19 20  2  0  0  0  0
 20 22  1  0  0  0  0
 20 21  1  0  0  0  0
 23 13  1  0  0  0  0
 23 22  1  0  0  0  0
 24 25  2  6  0  0  0
 24  9  1  0  0  0  0
 24 26  1  0  0  0  0
 27 28  1  0  0  0  0
 27 24  1  0  0  0  0
 29 30  1  6  0  0  0
 29 28  1  0  0  0  0
 31 32  1  6  0  0  0
 31 29  1  0  0  0  0
 33 34  1  1  0  0  0
 33 35  1  0  0  0  0
 33 31  1  0  0  0  0
 35 36  1  1  0  0  0
 35 30  1  0  0  0  0
 36 37  1  0  0  0  0
 38 37  2  0  0  0  0
 39 38  1  0  0  0  0
 40 41  2  0  0  0  0
 40 39  1  0  0  0  0
 42 40  1  0  0  0  0
 43 42  2  0  0  0  0
 43 45  1  0  0  0  0
 44 43  1  0  0  0  0
 45 46  1  0  0  0  0
 46 39  2  0  0  0  0
 46 36  1  0  0  0  0
M  END
>  <CHROM.1>
20.69396463,-14.28330883,157.18230195,43.61579052,143.94871772,-0.33097987
-0.16883296,1.03402480

>  <Name>
lig.pdb

>  <RI>
0

>  <Rbt.Current_Directory>
/home/itssahil/PROJECTS/Mol_Feturizer/New_Systems/rnas/4yb0

>  <Rbt.Executable>
rbdock ($Id: //depot/dev/client3/rdock/2013.1/src/exe/rbdock.cxx#4 $)

>  <Rbt.Library>
libRbt.so (2013.1, Build901 2013/11/27)

>  <Rbt.Parameter_File>
/export/apps/rDock/src/rDock_2013.1_src/data/scripts/dock_solv.prm

>  <Rbt.Receptor>
prm/pocket_docking_4.prm

>  <SCORE>
-53.5123

>  <SCORE.INTER>
-53.4285

>  <SCORE.INTER.CONST>
1

>  <SCORE.INTER.POLAR>
0

>  <SCORE.INTER.ROT>
2

>  <SCORE.INTER.SOLV>
30.7237

>  <SCORE.INTER.VDW>
-50.7935

>  <SCORE.INTER.norm>
-1.16149

>  <SCORE.INTRA>
-0.0838805

>  <SCORE.INTRA.DIHEDRAL>
-0.024403

>  <SCORE.INTRA.DIHEDRAL.0>
4.74153

>  <SCORE.INTRA.POLAR>
0

>  <SCORE.INTRA.POLAR.0>
0

>  <SCORE.INTRA.REPUL>
0

>  <SCORE.INTRA.REPUL.0>
0

>  <SCORE.INTRA.SOLV>
-0.00813196

>  <SCORE.INTRA.SOLV.lig_0>
-60.4375

>  <SCORE.INTRA.VDW>
-0.0676131

>  <SCORE.INTRA.VDW.0>
-1.83689

>  <SCORE.INTRA.norm>
-0.00182349

>  <SCORE.RESTR>
0

>  <SCORE.RESTR.CAVITY>
0

>  <SCORE.RESTR.norm>
0

>  <SCORE.SYSTEM>
0

>  <SCORE.SYSTEM.CONST>
0

>  <SCORE.SYSTEM.DIHEDRAL>
0

>  <SCORE.SYSTEM.SOLV>
0

>  <SCORE.SYSTEM.norm>
0

>  <SCORE.heavy>
46

>  <SCORE.norm>
-1.16331

>  <RMSD>
0.395

$$$$
lig.pdb
 OpenBabel11021811523D
libRbt.so/2013.1/901 2013/11/27
 46 52  0  0  0  0  0  0  0  0999 V2000
  158.4667   42.2250  147.5064 P   0  0  2  0  0  0  0  0  0  0  0  0
  159.3752   41.5414  148.5048 O   0  0  0  0  0  0  0  0  0  0  0  0
  157.0914   41.6354  147.3272 O   0  0  0  0  0  0  0  0  0  0  0  0
  159.1622   42.3317  146.0607 O   0  0  0  0  0  0  0  0  0  0  0  0
  160.5341   42.0116  145.8694 C   0  0  0  0  0  0  0  0  0  0  0  0
  161.0167   42.5658  144.5391 C   0  0  1  0  0  0  0  0  0  0  0  0
  161.0914   41.4890  143.6155 O   0  0  0  0  0  0  0  0  0  0  0  0
  160.1187   43.6158  143.8973 C   0  0  1  0  0  0  0  0  0  0  0  0
  160.6864   44.9049  144.0776 O   0  0  0  0  0  0  0  0  0  0  0  0
  160.1786   43.2781  142.4245 C   0  0  1  0  0  0  0  0  0  0  0  0
  161.2583   43.9871  141.8132 O   0  0  0  0  0  0  0  0  0  0  0  0
  160.5230   41.8185  142.3574 C   0  0  2  0  0  0  0  0  0  0  0  0
  159.2791   41.0326  142.1787 N   0  0  0  0  0  0  0  0  0  0  0  0
  158.7847   40.1390  143.0530 C   0  0  0  0  0  0  0  0  0  0  0  0
  157.6425   39.5874  142.5772 N   0  0  0  0  0  0  0  0  0  0  0  0
  157.3882   40.1296  141.3730 C   0  0  0  0  0  0  0  0  0  0  0  0
  156.3399   39.9908  140.3349 C   0  0  0  0  0  0  0  0  0  0  0  0
  155.3904   39.1872  140.4982 O   0  0  0  0  0  0  0  0  0  0  0  0
  156.4477   40.7464  139.2286 N   0  0  0  0  0  0  0  0  0  0  0  0
  157.4696   41.6063  139.0574 C   0  0  0  0  0  0  0  0  0  0  0  0
  157.5243   42.3446  137.9264 N   0  0  0  0  0  0  0  0  0  0  0  0
  158.4582   41.7816  139.9633 N   0  0  0  0  0  0  0  0  0  0  0  0
  158.4722   41.0838  141.1191 C   0  0  0  0  0  0  0  0  0  0  0  0
  159.8848   46.2832  143.7713 P   0  0  2  0  0  0  0  0  0  0  0  0
  159.2527   46.1954  142.4035 O   0  0  0  0  0  0  0  0  0  0  0  0
  160.8396   47.4101  144.1183 O   0  0  0  0  0  0  0  0  0  0  0  0
  158.6919   46.2390  144.8595 O   0  0  0  0  0  0  0  0  0  0  0  0
  158.9423   46.6196  146.2119 C   0  0  0  0  0  0  0  0  0  0  0  0
  157.8860   46.0974  147.1907 C   0  0  1  0  0  0  0  0  0  0  0  0
  156.6787   46.8445  147.0262 O   0  0  0  0  0  0  0  0  0  0  0  0
  157.5203   44.6242  147.0227 C   0  0  1  0  0  0  0  0  0  0  0  0
  158.2705   43.7779  147.8928 O   0  0  0  0  0  0  0  0  0  0  0  0
  156.0441   44.6162  147.3731 C   0  0  1  0  0  0  0  0  0  0  0  0
  155.8567   44.4657  148.7830 O   0  0  0  0  0  0  0  0  0  0  0  0
  155.5329   45.9895  146.9909 C   0  0  2  0  0  0  0  0  0  0  0  0
  155.0060   45.9544  145.6040 N   0  0  0  0  0  0  0  0  0  0  0  0
  155.6223   46.4570  144.5159 C   0  0  0  0  0  0  0  0  0  0  0  0
  154.8927   46.2593  143.3828 N   0  0  0  0  0  0  0  0  0  0  0  0
  153.7762   45.6054  143.7404 C   0  0  0  0  0  0  0  0  0  0  0  0
  152.5665   45.0934  143.0474 C   0  0  0  0  0  0  0  0  0  0  0  0
  152.4056   45.2035  141.8128 O   0  0  0  0  0  0  0  0  0  0  0  0
  151.6462   44.4767  143.7905 N   0  0  0  0  0  0  0  0  0  0  0  0
  151.7752   44.3277  145.1179 C   0  0  0  0  0  0  0  0  0  0  0  0
  150.7820   43.7037  145.7688 N   0  0  0  0  0  0  0  0  0  0  0  0
  152.8419   44.7738  145.8217 N   0  0  0  0  0  0  0  0  0  0  0  0
  153.8575   45.4107  145.2019 C   0  0  0  0  0  0  0  0  0  0  0  0
  1  3  2  6  0  0  0
  1 32  1  0  0  0  0
  1  2  1  0  0  0  0
  1  4  1  0  0  0  0
  4  5  1  0  0  0  0
  6  5  1  1  0  0  0
  7  6  1  0  0  0  0
  8  6  1  0  0  0  0
  8 10  1  0  0  0  0
  8  9  1  6  0  0  0
 10 11  1  6  0  0  0
 12 13  1  1  0  0  0
 12  7  1  0  0  0  0
 12 10  1  0  0  0  0
 14 13  1  0  0  0  0
 15 16  1  0  0  0  0
 15 14  2  0  0  0  0
 16 23  2  0  0  0  0
 17 16  1  0  0  0  0
 17 19  1  0  0  0  0
 18 17  2  0  0  0  0
 19 20  2  0  0  0  0
 20 22  1  0  0  0  0
 20 21  1  0  0  0  0
 23 13  1  0  0  0  0
 23 22  1  0  0  0  0
 24 25  2  6  0  0  0
 24  9  1  0  0  0  0
 24 26  1  0  0  0  0
 27 28  1  0  0  0  0
 27 24  1  0  0  0  0
 29 30  1  6  0  0  0
 29 28  1  0  0  0  0
 31 32  1  1  0  0  0
 31 29  1  0  0  0  0
 33 34  1  1  0  0  0
 33 35  1  0  0  0  0
 33 31  1  0  0  0  0
 35 36  1  6  0  0  0
 35 30  1  0  0  0  0
 36 37  1  0  0  0  0
 38 37  2  0  0  0  0
 39 38  1  0  0  0  0
 40 41  2  0  0  0  0
 40 39  1  0  0  0  0
 42 40  1  0  0  0  0
 43 42  2  0  0  0  0
 43 45  1  0  0  0  0
 44 43  1  0  0  0  0
 45 46  1  0  0  0  0
 46 39  2  0  0  0  0
 46 36  1  0  0  0  0
M  END
>  <CHROM.1>
-1.07910883,10.13300710,157.41653540,43.65557086,144.20053389,-2.16599180
0.16580002,-2.11548529

>  <Name>
lig.pdb

>  <RI>
0

>  <Rbt.Current_Directory>
/home/itssahil/PROJECTS/Mol_Feturizer/New_Systems/rnas/4yb0

>  <Rbt.Executable>
rbdock ($Id: //depot/dev/client3/rdock/2013.1/src/exe/rbdock.cxx#4 $)

>  <Rbt.Library>
libRbt.so (2013.1, Build901 2013/11/27)

>  <Rbt.Parameter_File>
/export/apps/rDock/src/rDock_2013.1_src/data/scripts/dock_solv.prm

>  <Rbt.Receptor>
prm/pocket_docking_4.prm

>  <SCORE>
-50.4905

>  <SCORE.INTER>
-50.5216

>  <SCORE.INTER.CONST>
1

>  <SCORE.INTER.POLAR>
0

>  <SCORE.INTER.ROT>
2

>  <SCORE.INTER.SOLV>
29.3133

>  <SCORE.INTER.VDW>
-48.3855

>  <SCORE.INTER.norm>
-1.0983

>  <SCORE.INTRA>
0.0311459

>  <SCORE.INTRA.DIHEDRAL>
0.0892402

>  <SCORE.INTRA.DIHEDRAL.0>
4.74153

>  <SCORE.INTRA.POLAR>
0

>  <SCORE.INTRA.POLAR.0>
0

>  <SCORE.INTRA.REPUL>
0

>  <SCORE.INTRA.REPUL.0>
0

>  <SCORE.INTRA.SOLV>
0.112363

>  <SCORE.INTRA.SOLV.lig_0>
-60.4375

>  <SCORE.INTRA.VDW>
-0.0696556

>  <SCORE.INTRA.VDW.0>
-1.83689

>  <SCORE.INTRA.norm>
0.000677084

>  <SCORE.RESTR>
0

>  <SCORE.RESTR.CAVITY>
0

>  <SCORE.RESTR.norm>
0

>  <SCORE.SYSTEM>
0

>  <SCORE.SYSTEM.CONST>
0

>  <SCORE.SYSTEM.DIHEDRAL>
0

>  <SCORE.SYSTEM.SOLV>
0

>  <SCORE.SYSTEM.norm>
0

>  <SCORE.heavy>
46

>  <SCORE.norm>
-1.09762

>  <RMSD>
0.396

$$$$
lig.pdb
 OpenBabel11021811523D
libRbt.so/2013.1/901 2013/11/27
 46 52  0  0  0  0  0  0  0  0999 V2000
  158.3666   42.2743  147.4212 P   0  0  2  0  0  0  0  0  0  0  0  0
  159.2519   41.5912  148.4406 O   0  0  0  0  0  0  0  0  0  0  0  0
  156.9858   41.7015  147.2308 O   0  0  0  0  0  0  0  0  0  0  0  0
  159.0831   42.3526  145.9840 O   0  0  0  0  0  0  0  0  0  0  0  0
  160.4528   42.0112  145.8156 C   0  0  0  0  0  0  0  0  0  0  0  0
  160.9610   42.5414  144.4850 C   0  0  1  0  0  0  0  0  0  0  0  0
  161.0331   41.4518  143.5764 O   0  0  0  0  0  0  0  0  0  0  0  0
  160.0865   43.5953  143.8177 C   0  0  1  0  0  0  0  0  0  0  0  0
  160.6697   44.8787  143.9893 O   0  0  0  0  0  0  0  0  0  0  0  0
  160.1616   43.2378  142.3502 C   0  0  1  0  0  0  0  0  0  0  0  0
  161.2593   43.9238  141.7448 O   0  0  0  0  0  0  0  0  0  0  0  0
  160.4864   41.7728  142.3065 C   0  0  2  0  0  0  0  0  0  0  0  0
  159.2342   41.0019  142.1209 N   0  0  0  0  0  0  0  0  0  0  0  0
  158.7353   40.0986  142.9826 C   0  0  0  0  0  0  0  0  0  0  0  0
  157.5856   39.5660  142.5032 N   0  0  0  0  0  0  0  0  0  0  0  0
  157.3309   40.1307  141.3095 C   0  0  0  0  0  0  0  0  0  0  0  0
  156.2764   40.0192  140.2743 C   0  0  0  0  0  0  0  0  0  0  0  0
  155.3200   39.2220  140.4289 O   0  0  0  0  0  0  0  0  0  0  0  0
  156.3863   40.7920  139.1802 N   0  0  0  0  0  0  0  0  0  0  0  0
  157.4155   41.6449  139.0184 C   0  0  0  0  0  0  0  0  0  0  0  0
  157.4721   42.4014  137.8995 N   0  0  0  0  0  0  0  0  0  0  0  0
  158.4101   41.7956  139.9223 N   0  0  0  0  0  0  0  0  0  0  0  0
  158.4228   41.0785  141.0662 C   0  0  0  0  0  0  0  0  0  0  0  0
  159.8917   46.2638  143.6545 P   0  0  2  0  0  0  0  0  0  0  0  0
  159.2770   46.1671  142.2794 O   0  0  0  0  0  0  0  0  0  0  0  0
  160.8574   47.3818  144.0001 O   0  0  0  0  0  0  0  0  0  0  0  0
  158.6837   46.2502  144.7268 O   0  0  0  0  0  0  0  0  0  0  0  0
  158.9211   46.6448  146.0775 C   0  0  0  0  0  0  0  0  0  0  0  0
  157.8445   46.1499  147.0483 C   0  0  1  0  0  0  0  0  0  0  0  0
  156.6501   46.9115  146.8578 O   0  0  0  0  0  0  0  0  0  0  0  0
  157.4606   44.6799  146.8941 C   0  0  1  0  0  0  0  0  0  0  0  0
  158.1870   43.8346  147.7851 O   0  0  0  0  0  0  0  0  0  0  0  0
  155.9798   44.6967  147.2243 C   0  0  1  0  0  0  0  0  0  0  0  0
  155.7712   44.5671  148.6334 O   0  0  0  0  0  0  0  0  0  0  0  0
  155.4931   46.0720  146.8177 C   0  0  2  0  0  0  0  0  0  0  0  0
  154.9845   46.0262  145.4244 N   0  0  0  0  0  0  0  0  0  0  0  0
  155.6273   46.4961  144.3370 C   0  0  0  0  0  0  0  0  0  0  0  0
  154.9089   46.2968  143.1971 N   0  0  0  0  0  0  0  0  0  0  0  0
  153.7723   45.6752  143.5496 C   0  0  0  0  0  0  0  0  0  0  0  0
  152.5605   45.1803  142.8480 C   0  0  0  0  0  0  0  0  0  0  0  0
  152.4191   45.2737  141.6097 O   0  0  0  0  0  0  0  0  0  0  0  0
  151.6158   44.5977  143.5881 N   0  0  0  0  0  0  0  0  0  0  0  0
  151.7230   44.4678  144.9194 C   0  0  0  0  0  0  0  0  0  0  0  0
  150.7065   43.8781  145.5663 N   0  0  0  0  0  0  0  0  0  0  0  0
  152.7902   44.9004  145.6308 N   0  0  0  0  0  0  0  0  0  0  0  0
  153.8291   45.5029  145.0151 C   0  0  0  0  0  0  0  0  0  0  0  0
  1  3  2  6  0  0  0
  1 32  1  0  0  0  0
  1  2  1  0  0  0  0
  1  4  1  0  0  0  0
  4  5  1  0  0  0  0
  6  5  1  1  0  0  0
  7  6  1  0  0  0  0
  8  6  1  0  0  0  0
  8 10  1  0  0  0  0
  8  9  1  6  0  0  0
 10 11  1  6  0  0  0
 12 13  1  1  0  0  0
 12  7  1  0  0  0  0
 12 10  1  0  0  0  0
 14 13  1  0  0  0  0
 15 16  1  0  0  0  0
 15 14  2  0  0  0  0
 16 23  2  0  0  0  0
 17 16  1  0  0  0  0
 17 19  1  0  0  0  0
 18 17  2  0  0  0  0
 19 20  2  0  0  0  0
 20 22  1  0  0  0  0
 20 21  1  0  0  0  0
 23 13  1  0  0  0  0
 23 22  1  0  0  0  0
 24 25  2  6  0  0  0
 24  9  1  0  0  0  0
 24 26  1  0  0  0  0
 27 28  1  0  0  0  0
 27 24  1  0  0  0  0
 29 30  1  6  0  0  0
 29 28  1  0  0  0  0
 31 32  1  1  0  0  0
 31 29  1  0  0  0  0
 33 34  1  1  0  0  0
 33 35  1  0  0  0  0
 33 31  1  0  0  0  0
 35 36  1  6  0  0  0
 35 30  1  0  0  0  0
 36 37  1  0  0  0  0
 38 37  2  0  0  0  0
 39 38  1  0  0  0  0
 40 41  2  0  0  0  0
 40 39  1  0  0  0  0
 42 40  1  0  0  0  0
 43 42  2  0  0  0  0
 43 45  1  0  0  0  0
 44 43  1  0  0  0  0
 45 46  1  0  0  0  0
 46 39  2  0  0  0  0
 46 36  1  0  0  0  0
M  END
>  <CHROM.1>
-3.08609678,10.72343808,157.37417995,43.68726259,144.08856598,-2.19960858
0.18919465,-2.12428553

>  <Name>
lig.pdb

>  <RI>
0

>  <Rbt.Current_Directory>
/home/itssahil/PROJECTS/Mol_Feturizer/New_Systems/rnas/4yb0

>  <Rbt.Executable>
rbdock ($Id: //depot/dev/client3/rdock/2013.1/src/exe/rbdock.cxx#4 $)

>  <Rbt.Library>
libRbt.so (2013.1, Build901 2013/11/27)

>  <Rbt.Parameter_File>
/export/apps/rDock/src/rDock_2013.1_src/data/scripts/dock_solv.prm

>  <Rbt.Receptor>
prm/pocket_docking_2.prm

>  <SCORE>
-50.1452

>  <SCORE.INTER>
-50.2309

>  <SCORE.INTER.CONST>
1

>  <SCORE.INTER.POLAR>
0

>  <SCORE.INTER.ROT>
2

>  <SCORE.INTER.SOLV>
30.1582

>  <SCORE.INTER.VDW>
-48.4734

>  <SCORE.INTER.norm>
-1.09198

>  <SCORE.INTRA>
0.051807

>  <SCORE.INTRA.DIHEDRAL>
0.0956434

>  <SCORE.INTRA.DIHEDRAL.0>
4.74153

>  <SCORE.INTRA.POLAR>
0

>  <SCORE.INTRA.POLAR.0>
0

>  <SCORE.INTRA.REPUL>
0

>  <SCORE.INTRA.REPUL.0>
0

>  <SCORE.INTRA.SOLV>
0.119914

>  <SCORE.INTRA.SOLV.lig_0>
-60.4375

>  <SCORE.INTRA.VDW>
-0.0559715

>  <SCORE.INTRA.VDW.0>
-1.83689

>  <SCORE.INTRA.norm>
0.00112624

>  <SCORE.RESTR>
0.0339076

>  <SCORE.RESTR.CAVITY>
0.0339076

>  <SCORE.RESTR.norm>
0.000737122

>  <SCORE.SYSTEM>
0

>  <SCORE.SYSTEM.CONST>
0

>  <SCORE.SYSTEM.DIHEDRAL>
0

>  <SCORE.SYSTEM.SOLV>
0

>  <SCORE.SYSTEM.norm>
0

>  <SCORE.heavy>
46

>  <SCORE.norm>
-1.09011

>  <RMSD>
0.400

$$$$
lig.pdb
 OpenBabel11021811523D
libRbt.so/2013.1/901 2013/11/27
 46 52  0  0  0  0  0  0  0  0999 V2000
  158.4447   42.3855  147.3990 P   0  0  2  0  0  0  0  0  0  0  0  0
  159.3560   41.7393  148.4196 O   0  0  0  0  0  0  0  0  0  0  0  0
  157.0785   41.7731  147.2266 O   0  0  0  0  0  0  0  0  0  0  0  0
  159.1477   42.4654  145.9553 O   0  0  0  0  0  0  0  0  0  0  0  0
  160.5249   42.1592  145.7802 C   0  0  0  0  0  0  0  0  0  0  0  0
  161.0083   42.6865  144.4392 C   0  0  1  0  0  0  0  0  0  0  0  0
  161.1031   41.5881  143.5434 O   0  0  0  0  0  0  0  0  0  0  0  0
  160.1004   43.7079  143.7661 C   0  0  1  0  0  0  0  0  0  0  0  0
  160.6497   45.0087  143.9174 O   0  0  0  0  0  0  0  0  0  0  0  0
  160.1740   43.3344  142.3026 C   0  0  1  0  0  0  0  0  0  0  0  0
  161.2479   44.0424  141.6802 O   0  0  0  0  0  0  0  0  0  0  0  0
  160.5382   41.8784  142.2740 C   0  0  2  0  0  0  0  0  0  0  0  0
  159.3061   41.0716  142.1078 N   0  0  0  0  0  0  0  0  0  0  0  0
  158.8437   40.1589  142.9800 C   0  0  0  0  0  0  0  0  0  0  0  0
  157.7037   39.5916  142.5176 N   0  0  0  0  0  0  0  0  0  0  0  0
  157.4183   40.1428  141.3245 C   0  0  0  0  0  0  0  0  0  0  0  0
  156.3546   39.9963  140.3032 C   0  0  0  0  0  0  0  0  0  0  0  0
  155.4231   39.1734  140.4735 O   0  0  0  0  0  0  0  0  0  0  0  0
  156.4290   40.7664  139.2041 N   0  0  0  0  0  0  0  0  0  0  0  0
  157.4317   41.6471  139.0254 C   0  0  0  0  0  0  0  0  0  0  0  0
  157.4529   42.3992  137.9023 N   0  0  0  0  0  0  0  0  0  0  0  0
  158.4327   41.8304  139.9160 N   0  0  0  0  0  0  0  0  0  0  0  0
  158.4798   41.1198  141.0630 C   0  0  0  0  0  0  0  0  0  0  0  0
  159.8318   46.3680  143.5720 P   0  0  2  0  0  0  0  0  0  0  0  0
  159.2094   46.2375  142.2031 O   0  0  0  0  0  0  0  0  0  0  0  0
  160.7692   47.5159  143.8963 O   0  0  0  0  0  0  0  0  0  0  0  0
  158.6327   46.3348  144.6539 O   0  0  0  0  0  0  0  0  0  0  0  0
  158.8696   46.7524  145.9978 C   0  0  0  0  0  0  0  0  0  0  0  0
  157.8143   46.2405  146.9831 C   0  0  1  0  0  0  0  0  0  0  0  0
  156.5982   46.9670  146.7928 O   0  0  0  0  0  0  0  0  0  0  0  0
  157.4694   44.7589  146.8499 C   0  0  1  0  0  0  0  0  0  0  0  0
  158.2254   43.9447  147.7453 O   0  0  0  0  0  0  0  0  0  0  0  0
  155.9912   44.7396  147.1916 C   0  0  1  0  0  0  0  0  0  0  0  0
  155.7971   44.6218  148.6038 O   0  0  0  0  0  0  0  0  0  0  0  0
  155.4642   46.0960  146.7722 C   0  0  2  0  0  0  0  0  0  0  0  0
  154.9464   46.0191  145.3836 N   0  0  0  0  0  0  0  0  0  0  0  0
  155.5816   46.4655  144.2819 C   0  0  0  0  0  0  0  0  0  0  0  0
  154.8558   46.2406  143.1515 N   0  0  0  0  0  0  0  0  0  0  0  0
  153.7222   45.6261  143.5251 C   0  0  0  0  0  0  0  0  0  0  0  0
  152.5063   45.1149  142.8426 C   0  0  0  0  0  0  0  0  0  0  0  0
  152.3566   45.1809  141.6035 O   0  0  0  0  0  0  0  0  0  0  0  0
  151.5670   44.5480  143.6015 N   0  0  0  0  0  0  0  0  0  0  0  0
  151.6831   44.4475  144.9347 C   0  0  0  0  0  0  0  0  0  0  0  0
  150.6715   43.8715  145.6011 N   0  0  0  0  0  0  0  0  0  0  0  0
  152.7546   44.8965  145.6293 N   0  0  0  0  0  0  0  0  0  0  0  0
  153.7888   45.4861  144.9936 C   0  0  0  0  0  0  0  0  0  0  0  0
  1  3  2  6  0  0  0
  1 32  1  0  0  0  0
  1  2  1  0  0  0  0
  1  4  1  0  0  0  0
  4  5  1  0  0  0  0
  6  5  1  1  0  0  0
  7  6  1  0  0  0  0
  8  6  1  0  0  0  0
  8 10  1  0  0  0  0
  8  9  1  6  0  0  0
 10 11  1  6  0  0  0
 12 13  1  1  0  0  0
 12  7  1  0  0  0  0
 12 10  1  0  0  0  0
 14 13  1  0  0  0  0
 15 16  1  0  0  0  0
 15 14  2  0  0  0  0
 16 23  2  0  0  0  0
 17 16  1  0  0  0  0
 17 19  1  0  0  0  0
 18 17  2  0  0  0  0
 19 20  2  0  0  0  0
 20 22  1  0  0  0  0
 20 21  1  0  0  0  0
 23 13  1  0  0  0  0
 23 22  1  0  0  0  0
 24 25  2  6  0  0  0
 24  9  1  0  0  0  0
 24 26  1  0  0  0  0
 27 28  1  0  0  0  0
 27 24  1  0  0  0  0
 29 30  1  6  0  0  0
 29 28  1  0  0  0  0
 31 32  1  1  0  0  0
 31 29  1  0  0  0  0
 33 34  1  1  0  0  0
 33 35  1  0  0  0  0
 33 31  1  0  0  0  0
 35 36  1  6  0  0  0
 35 30  1  0  0  0  0
 36 37  1  0  0  0  0
 38 37  2  0  0  0  0
 39 38  1  0  0  0  0
 40 41  2  0  0  0  0
 40 39  1  0  0  0  0
 42 40  1  0  0  0  0
 43 42  2  0  0  0  0
 43 45  1  0  0  0  0
 44 43  1  0  0  0  0
 45 46  1  0  0  0  0
 46 39  2  0  0  0  0
 46 36  1  0  0  0  0
M  END
>  <CHROM.1>
-3.58977041,12.33447153,157.38321858,43.73923067,144.05970742,-2.23347239
0.16904100,-2.13342220

>  <Name>
lig.pdb

>  <RI>
0

>  <Rbt.Current_Directory>
/home/itssahil/PROJECTS/Mol_Feturizer/New_Systems/rnas/4yb0

>  <Rbt.Executable>
rbdock ($Id: //depot/dev/client3/rdock/2013.1/src/exe/rbdock.cxx#4 $)

>  <Rbt.Library>
libRbt.so (2013.1, Build901 2013/11/27)

>  <Rbt.Parameter_File>
/export/apps/rDock/src/rDock_2013.1_src/data/scripts/dock_solv.prm

>  <Rbt.Receptor>
prm/pocket_docking_2.prm

>  <SCORE>
-50.2381

>  <SCORE.INTER>
-50.2955

>  <SCORE.INTER.CONST>
1

>  <SCORE.INTER.POLAR>
0

>  <SCORE.INTER.ROT>
2

>  <SCORE.INTER.SOLV>
29.8857

>  <SCORE.INTER.VDW>
-48.4255

>  <SCORE.INTER.norm>
-1.09338

>  <SCORE.INTRA>
0.053552

>  <SCORE.INTRA.DIHEDRAL>
0.101082

>  <SCORE.INTRA.DIHEDRAL.0>
4.74153

>  <SCORE.INTRA.POLAR>
0

>  <SCORE.INTRA.POLAR.0>
0

>  <SCORE.INTRA.REPUL>
0

>  <SCORE.INTRA.REPUL.0>
0

>  <SCORE.INTRA.SOLV>
0.123178

>  <SCORE.INTRA.SOLV.lig_0>
-60.4375

>  <SCORE.INTRA.VDW>
-0.0585783

>  <SCORE.INTRA.VDW.0>
-1.83689

>  <SCORE.INTRA.norm>
0.00116417

>  <SCORE.RESTR>
0.00381371

>  <SCORE.RESTR.CAVITY>
0.00381371

>  <SCORE.RESTR.norm>
8.29068e-05

>  <SCORE.SYSTEM>
0

>  <SCORE.SYSTEM.CONST>
0

>  <SCORE.SYSTEM.DIHEDRAL>
0

>  <SCORE.SYSTEM.SOLV>
0

>  <SCORE.SYSTEM.norm>
0

>  <SCORE.heavy>
46

>  <SCORE.norm>
-1.09213

>  <RMSD>
0.400

$$$$
lig.pdb
 OpenBabel11021811523D
libRbt.so/2013.1/901 2013/11/27
 46 52  0  0  0  0  0  0  0  0999 V2000
  158.3819   42.2931  147.3896 P   0  0  2  0  0  0  0  0  0  0  0  0
  159.2856   41.6351  148.4094 O   0  0  0  0  0  0  0  0  0  0  0  0
  157.0174   41.6823  147.1992 O   0  0  0  0  0  0  0  0  0  0  0  0
  159.0961   42.3907  145.9524 O   0  0  0  0  0  0  0  0  0  0  0  0
  160.4748   42.0871  145.7843 C   0  0  0  0  0  0  0  0  0  0  0  0
  160.9684   42.6306  144.4536 C   0  0  1  0  0  0  0  0  0  0  0  0
  161.0706   41.5431  143.5455 O   0  0  0  0  0  0  0  0  0  0  0  0
  160.0652   43.6597  143.7858 C   0  0  1  0  0  0  0  0  0  0  0  0
  160.6127   44.9587  143.9570 O   0  0  0  0  0  0  0  0  0  0  0  0
  160.1504   43.3038  142.3185 C   0  0  1  0  0  0  0  0  0  0  0  0
  161.2288   44.0196  141.7130 O   0  0  0  0  0  0  0  0  0  0  0  0
  160.5155   41.8483  142.2753 C   0  0  2  0  0  0  0  0  0  0  0  0
  159.2851   41.0431  142.0898 N   0  0  0  0  0  0  0  0  0  0  0  0
  158.8208   40.1140  142.9434 C   0  0  0  0  0  0  0  0  0  0  0  0
  157.6832   39.5538  142.4666 N   0  0  0  0  0  0  0  0  0  0  0  0
  157.4013   40.1265  141.2828 C   0  0  0  0  0  0  0  0  0  0  0  0
  156.3415   39.9975  140.2551 C   0  0  0  0  0  0  0  0  0  0  0  0
  155.4106   39.1703  140.4069 O   0  0  0  0  0  0  0  0  0  0  0  0
  156.4188   40.7878  139.1707 N   0  0  0  0  0  0  0  0  0  0  0  0
  157.4209   41.6729  139.0118 C   0  0  0  0  0  0  0  0  0  0  0  0
  157.4451   42.4456  137.9028 N   0  0  0  0  0  0  0  0  0  0  0  0
  158.4185   41.8411  139.9092 N   0  0  0  0  0  0  0  0  0  0  0  0
  158.4625   41.1095  141.0432 C   0  0  0  0  0  0  0  0  0  0  0  0
  159.7969   46.3218  143.6215 P   0  0  2  0  0  0  0  0  0  0  0  0
  159.1853   46.2076  142.2463 O   0  0  0  0  0  0  0  0  0  0  0  0
  160.7313   47.4661  143.9668 O   0  0  0  0  0  0  0  0  0  0  0  0
  158.5895   46.2752  144.6936 O   0  0  0  0  0  0  0  0  0  0  0  0
  158.8157   46.6767  146.0441 C   0  0  0  0  0  0  0  0  0  0  0  0
  157.7530   46.1527  147.0150 C   0  0  1  0  0  0  0  0  0  0  0  0
  156.5381   46.8809  146.8240 O   0  0  0  0  0  0  0  0  0  0  0  0
  157.4099   44.6726  146.8613 C   0  0  1  0  0  0  0  0  0  0  0  0
  158.1593   43.8480  147.7528 O   0  0  0  0  0  0  0  0  0  0  0  0
  155.9291   44.6487  147.1913 C   0  0  1  0  0  0  0  0  0  0  0  0
  155.7240   44.5139  148.6004 O   0  0  0  0  0  0  0  0  0  0  0  0
  155.4047   46.0098  146.7841 C   0  0  2  0  0  0  0  0  0  0  0  0
  154.8978   45.9494  145.3907 N   0  0  0  0  0  0  0  0  0  0  0  0
  155.5613   46.3661  144.2940 C   0  0  0  0  0  0  0  0  0  0  0  0
  154.8380   46.1670  143.1572 N   0  0  0  0  0  0  0  0  0  0  0  0
  153.6768   45.6002  143.5213 C   0  0  0  0  0  0  0  0  0  0  0  0
  152.4478   45.1365  142.8284 C   0  0  0  0  0  0  0  0  0  0  0  0
  152.3130   45.2044  141.5877 O   0  0  0  0  0  0  0  0  0  0  0  0
  151.4789   44.6106  143.5797 N   0  0  0  0  0  0  0  0  0  0  0  0
  151.5779   44.5099  144.9142 C   0  0  0  0  0  0  0  0  0  0  0  0
  150.5374   43.9775  145.5723 N   0  0  0  0  0  0  0  0  0  0  0  0
  152.6600   44.9173  145.6180 N   0  0  0  0  0  0  0  0  0  0  0  0
  153.7234   45.4625  144.9908 C   0  0  0  0  0  0  0  0  0  0  0  0
  1  3  2  6  0  0  0
  1 32  1  0  0  0  0
  1  2  1  0  0  0  0
  1  4  1  0  0  0  0
  4  5  1  0  0  0  0
  6  5  1  1  0  0  0
  7  6  1  0  0  0  0
  8  6  1  0  0  0  0
  8 10  1  0  0  0  0
  8  9  1  6  0  0  0
 10 11  1  6  0  0  0
 12 13  1  1  0  0  0
 12  7  1  0  0  0  0
 12 10  1  0  0  0  0
 14 13  1  0  0  0  0
 15 16  1  0  0  0  0
 15 14  2  0  0  0  0
 16 23  2  0  0  0  0
 17 16  1  0  0  0  0
 17 19  1  0  0  0  0
 18 17  2  0  0  0  0
 19 20  2  0  0  0  0
 20 22  1  0  0  0  0
 20 21  1  0  0  0  0
 23 13  1  0  0  0  0
 23 22  1  0  0  0  0
 24 25  2  6  0  0  0
 24  9  1  0  0  0  0
 24 26  1  0  0  0  0
 27 28  1  0  0  0  0
 27 24  1  0  0  0  0
 29 30  1  6  0  0  0
 29 28  1  0  0  0  0
 31 32  1  1  0  0  0
 31 29  1  0  0  0  0
 33 34  1  1  0  0  0
 33 35  1  0  0  0  0
 33 31  1  0  0  0  0
 35 36  1  6  0  0  0
 35 30  1  0  0  0  0
 36 37  1  0  0  0  0
 38 37  2  0  0  0  0
 39 38  1  0  0  0  0
 40 41  2  0  0  0  0
 40 39  1  0  0  0  0
 42 40  1  0  0  0  0
 43 42  2  0  0  0  0
 43 45  1  0  0  0  0
 44 43  1  0  0  0  0
 45 46  1  0  0  0  0
 46 39  2  0  0  0  0
 46 36  1  0  0  0  0
M  END
>  <CHROM.1>
-4.03201607,14.83818176,157.33868515,43.70030545,144.06127594,-2.27377534
0.18372446,-2.11793148

>  <Name>
lig.pdb

>  <RI>
0

>  <Rbt.Current_Directory>
/home/itssahil/PROJECTS/Mol_Feturizer/New_Systems/rnas/4yb0

>  <Rbt.Executable>
rbdock ($Id: //depot/dev/client3/rdock/2013.1/src/exe/rbdock.cxx#4 $)

>  <Rbt.Library>
libRbt.so (2013.1, Build901 2013/11/27)

>  <Rbt.Parameter_File>
/export/apps/rDock/src/rDock_2013.1_src/data/scripts/dock_solv.prm

>  <Rbt.Receptor>
prm/pocket_docking_2.prm

>  <SCORE>
-50.3526

>  <SCORE.INTER>
-50.4079

>  <SCORE.INTER.CONST>
1

>  <SCORE.INTER.POLAR>
0

>  <SCORE.INTER.ROT>
2

>  <SCORE.INTER.SOLV>
30.5447

>  <SCORE.INTER.VDW>
-48.7202

>  <SCORE.INTER.norm>
-1.09582

>  <SCORE.INTRA>
0.0548549

>  <SCORE.INTRA.DIHEDRAL>
0.10822

>  <SCORE.INTRA.DIHEDRAL.0>
4.74153

>  <SCORE.INTRA.POLAR>
0

>  <SCORE.INTRA.POLAR.0>
0

>  <SCORE.INTRA.REPUL>
0

>  <SCORE.INTRA.REPUL.0>
0

>  <SCORE.INTRA.SOLV>
0.131153

>  <SCORE.INTRA.SOLV.lig_0>
-60.4375

>  <SCORE.INTRA.VDW>
-0.0648314

>  <SCORE.INTRA.VDW.0>
-1.83689

>  <SCORE.INTRA.norm>
0.0011925

>  <SCORE.RESTR>
0.000446924

>  <SCORE.RESTR.CAVITY>
0.000446924

>  <SCORE.RESTR.norm>
9.71575e-06

>  <SCORE.SYSTEM>
0

>  <SCORE.SYSTEM.CONST>
0

>  <SCORE.SYSTEM.DIHEDRAL>
0

>  <SCORE.SYSTEM.SOLV>
0

>  <SCORE.SYSTEM.norm>
0

>  <SCORE.heavy>
46

>  <SCORE.norm>
-1.09462

>  <RMSD>
0.401

$$$$
lig.pdb
 OpenBabel11021811523D
libRbt.so/2013.1/901 2013/11/27
 46 52  0  0  0  0  0  0  0  0999 V2000
  158.3743   42.2823  147.3944 P   0  0  2  0  0  0  0  0  0  0  0  0
  159.2740   41.6214  148.4159 O   0  0  0  0  0  0  0  0  0  0  0  0
  157.0064   41.6788  147.2052 O   0  0  0  0  0  0  0  0  0  0  0  0
  159.0892   42.3725  145.9572 O   0  0  0  0  0  0  0  0  0  0  0  0
  160.4662   42.0608  145.7900 C   0  0  0  0  0  0  0  0  0  0  0  0
  160.9630   42.5984  144.4582 C   0  0  1  0  0  0  0  0  0  0  0  0
  161.0592   41.5083  143.5525 O   0  0  0  0  0  0  0  0  0  0  0  0
  160.0658   43.6311  143.7878 C   0  0  1  0  0  0  0  0  0  0  0  0
  160.6207   44.9274  143.9562 O   0  0  0  0  0  0  0  0  0  0  0  0
  160.1492   43.2714  142.3214 C   0  0  1  0  0  0  0  0  0  0  0  0
  161.2318   43.9797  141.7144 O   0  0  0  0  0  0  0  0  0  0  0  0
  160.5061   41.8138  142.2815 C   0  0  2  0  0  0  0  0  0  0  0  0
  159.2711   41.0152  142.0977 N   0  0  0  0  0  0  0  0  0  0  0  0
  158.8011   40.0911  142.9536 C   0  0  0  0  0  0  0  0  0  0  0  0
  157.6606   39.5362  142.4777 N   0  0  0  0  0  0  0  0  0  0  0  0
  157.3825   40.1072  141.2923 C   0  0  0  0  0  0  0  0  0  0  0  0
  156.3224   39.9815  140.2644 C   0  0  0  0  0  0  0  0  0  0  0  0
  155.3866   39.1601  140.4181 O   0  0  0  0  0  0  0  0  0  0  0  0
  156.4047   40.7684  139.1779 N   0  0  0  0  0  0  0  0  0  0  0  0
  157.4120   41.6473  139.0171 C   0  0  0  0  0  0  0  0  0  0  0  0
  157.4411   42.4168  137.9060 N   0  0  0  0  0  0  0  0  0  0  0  0
  158.4101   41.8122  139.9145 N   0  0  0  0  0  0  0  0  0  0  0  0
  158.4494   41.0835  141.0505 C   0  0  0  0  0  0  0  0  0  0  0  0
  159.8126   46.2943  143.6175 P   0  0  2  0  0  0  0  0  0  0  0  0
  159.2006   46.1805  142.2425 O   0  0  0  0  0  0  0  0  0  0  0  0
  160.7534   47.4341  143.9604 O   0  0  0  0  0  0  0  0  0  0  0  0
  158.6048   46.2570  144.6895 O   0  0  0  0  0  0  0  0  0  0  0  0
  158.8331   46.6603  146.0392 C   0  0  0  0  0  0  0  0  0  0  0  0
  157.7673   46.1445  147.0111 C   0  0  1  0  0  0  0  0  0  0  0  0
  156.5566   46.8792  146.8182 O   0  0  0  0  0  0  0  0  0  0  0  0
  157.4158   44.6660  146.8607 C   0  0  1  0  0  0  0  0  0  0  0  0
  158.1604   43.8392  147.7541 O   0  0  0  0  0  0  0  0  0  0  0  0
  155.9349   44.6513  147.1905 C   0  0  1  0  0  0  0  0  0  0  0  0
  155.7288   44.5209  148.5999 O   0  0  0  0  0  0  0  0  0  0  0  0
  155.4182   46.0144  146.7801 C   0  0  2  0  0  0  0  0  0  0  0  0
  154.9112   45.9538  145.3868 N   0  0  0  0  0  0  0  0  0  0  0  0
  155.5746   46.3703  144.2899 C   0  0  0  0  0  0  0  0  0  0  0  0
  154.8512   46.1710  143.1532 N   0  0  0  0  0  0  0  0  0  0  0  0
  153.6901   45.6041  143.5176 C   0  0  0  0  0  0  0  0  0  0  0  0
  152.4610   45.1402  142.8248 C   0  0  0  0  0  0  0  0  0  0  0  0
  152.3261   45.2079  141.5841 O   0  0  0  0  0  0  0  0  0  0  0  0
  151.4923   44.6144  143.5763 N   0  0  0  0  0  0  0  0  0  0  0  0
  151.5914   44.5139  144.9108 C   0  0  0  0  0  0  0  0  0  0  0  0
  150.5509   43.9816  145.5691 N   0  0  0  0  0  0  0  0  0  0  0  0
  152.6735   44.9216  145.6145 N   0  0  0  0  0  0  0  0  0  0  0  0
  153.7368   45.4667  144.9871 C   0  0  0  0  0  0  0  0  0  0  0  0
  1  3  2  6  0  0  0
  1 32  1  0  0  0  0
  1  2  1  0  0  0  0
  1  4  1  0  0  0  0
  4  5  1  0  0  0  0
  6  5  1  1  0  0  0
  7  6  1  0  0  0  0
  8  6  1  0  0  0  0
  8 10  1  0  0  0  0
  8  9  1  6  0  0  0
 10 11  1  6  0  0  0
 12 13  1  1  0  0  0
 12  7  1  0  0  0  0
 12 10  1  0  0  0  0
 14 13  1  0  0  0  0
 15 16  1  0  0  0  0
 15 14  2  0  0  0  0
 16 23  2  0  0  0  0
 17 16  1  0  0  0  0
 17 19  1  0  0  0  0
 18 17  2  0  0  0  0
 19 20  2  0  0  0  0
 20 22  1  0  0  0  0
 20 21  1  0  0  0  0
 23 13  1  0  0  0  0
 23 22  1  0  0  0  0
 24 25  2  6  0  0  0
 24  9  1  0  0  0  0
 24 26  1  0  0  0  0
 27 28  1  0  0  0  0
 27 24  1  0  0  0  0
 29 30  1  6  0  0  0
 29 28  1  0  0  0  0
 31 32  1  1  0  0  0
 31 29  1  0  0  0  0
 33 34  1  1  0  0  0
 33 35  1  0  0  0  0
 33 31  1  0  0  0  0
 35 36  1  6  0  0  0
 35 30  1  0  0  0  0
 36 37  1  0  0  0  0
 38 37  2  0  0  0  0
 39 38  1  0  0  0  0
 40 41  2  0  0  0  0
 40 39  1  0  0  0  0
 42 40  1  0  0  0  0
 43 42  2  0  0  0  0
 43 45  1  0  0  0  0
 44 43  1  0  0  0  0
 45 46  1  0  0  0  0
 46 39  2  0  0  0  0
 46 36  1  0  0  0  0
M  END
>  <CHROM.1>
-3.99964715,14.48833544,157.34039309,43.68599561,144.06252774,-2.26682186
0.18711894,-2.12100413

>  <Name>
lig.pdb

>  <RI>
0

>  <Rbt.Current_Directory>
/home/itssahil/PROJECTS/Mol_Feturizer/New_Systems/rnas/4yb0

>  <Rbt.Executable>
rbdock ($Id: //depot/dev/client3/rdock/2013.1/src/exe/rbdock.cxx#4 $)

>  <Rbt.Library>
libRbt.so (2013.1, Build901 2013/11/27)

>  <Rbt.Parameter_File>
/export/apps/rDock/src/rDock_2013.1_src/data/scripts/dock_solv.prm

>  <Rbt.Receptor>
prm/pocket_docking_2.prm

>  <SCORE>
-50.3438

>  <SCORE.INTER>
-50.3987

>  <SCORE.INTER.CONST>
1

>  <SCORE.INTER.POLAR>
0

>  <SCORE.INTER.ROT>
2

>  <SCORE.INTER.SOLV>
30.5863

>  <SCORE.INTER.VDW>
-48.7279

>  <SCORE.INTER.norm>
-1.09562

>  <SCORE.INTRA>
0.0549264

>  <SCORE.INTRA.DIHEDRAL>
0.107332

>  <SCORE.INTRA.DIHEDRAL.0>
4.74153

>  <SCORE.INTRA.POLAR>
0

>  <SCORE.INTRA.POLAR.0>
0

>  <SCORE.INTRA.REPUL>
0

>  <SCORE.INTRA.REPUL.0>
0

>  <SCORE.INTRA.SOLV>
0.130035

>  <SCORE.INTRA.SOLV.lig_0>
-60.4375

>  <SCORE.INTRA.VDW>
-0.0637573

>  <SCORE.INTRA.VDW.0>
-1.83689

>  <SCORE.INTRA.norm>
0.00119405

>  <SCORE.RESTR>
0

>  <SCORE.RESTR.CAVITY>
0

>  <SCORE.RESTR.norm>
0

>  <SCORE.SYSTEM>
0

>  <SCORE.SYSTEM.CONST>
0

>  <SCORE.SYSTEM.DIHEDRAL>
0

>  <SCORE.SYSTEM.SOLV>
0

>  <SCORE.SYSTEM.norm>
0

>  <SCORE.heavy>
46

>  <SCORE.norm>
-1.09443

>  <RMSD>
0.401

$$$$
lig.pdb
 OpenBabel11021811523D
libRbt.so/2013.1/901 2013/11/27
 46 52  0  0  0  0  0  0  0  0999 V2000
  158.3974   42.2031  147.4307 P   0  0  2  0  0  0  0  0  0  0  0  0
  159.2904   41.5078  148.4351 O   0  0  0  0  0  0  0  0  0  0  0  0
  157.0274   41.6121  147.2189 O   0  0  0  0  0  0  0  0  0  0  0  0
  159.1179   42.3328  145.9993 O   0  0  0  0  0  0  0  0  0  0  0  0
  160.4939   42.0196  145.8276 C   0  0  0  0  0  0  0  0  0  0  0  0
  160.9980   42.5944  144.5141 C   0  0  1  0  0  0  0  0  0  0  0  0
  161.0924   41.5314  143.5765 O   0  0  0  0  0  0  0  0  0  0  0  0
  160.1081   43.6510  143.8719 C   0  0  1  0  0  0  0  0  0  0  0  0
  160.6683   44.9390  144.0808 O   0  0  0  0  0  0  0  0  0  0  0  0
  160.1950   43.3348  142.3956 C   0  0  1  0  0  0  0  0  0  0  0  0
  161.2830   44.0558  141.8138 O   0  0  0  0  0  0  0  0  0  0  0  0
  160.5451   41.8774  142.3134 C   0  0  2  0  0  0  0  0  0  0  0  0
  159.3071   41.0905  142.1016 N   0  0  0  0  0  0  0  0  0  0  0  0
  158.7940   40.1914  142.9593 C   0  0  0  0  0  0  0  0  0  0  0  0
  157.6642   39.6405  142.4540 N   0  0  0  0  0  0  0  0  0  0  0  0
  157.4371   40.1889  141.2471 C   0  0  0  0  0  0  0  0  0  0  0  0
  156.4136   40.0540  140.1840 C   0  0  0  0  0  0  0  0  0  0  0  0
  155.4620   39.2480  140.3208 O   0  0  0  0  0  0  0  0  0  0  0  0
  156.5460   40.8157  139.0846 N   0  0  0  0  0  0  0  0  0  0  0  0
  157.5701   41.6782  138.9419 C   0  0  0  0  0  0  0  0  0  0  0  0
  157.6499   42.4226  137.8164 N   0  0  0  0  0  0  0  0  0  0  0  0
  158.5369   41.8502  139.8717 N   0  0  0  0  0  0  0  0  0  0  0  0
  158.5251   41.1461  141.0237 C   0  0  0  0  0  0  0  0  0  0  0  0
  159.8679   46.3192  143.7803 P   0  0  2  0  0  0  0  0  0  0  0  0
  159.2602   46.2494  142.4004 O   0  0  0  0  0  0  0  0  0  0  0  0
  160.8128   47.4438  144.1603 O   0  0  0  0  0  0  0  0  0  0  0  0
  158.6561   46.2557  144.8466 O   0  0  0  0  0  0  0  0  0  0  0  0
  158.8815   46.6174  146.2085 C   0  0  0  0  0  0  0  0  0  0  0  0
  157.8098   46.0779  147.1609 C   0  0  1  0  0  0  0  0  0  0  0  0
  156.6033   46.8238  146.9860 O   0  0  0  0  0  0  0  0  0  0  0  0
  157.4520   44.6063  146.9652 C   0  0  1  0  0  0  0  0  0  0  0  0
  158.1895   43.7496  147.8361 O   0  0  0  0  0  0  0  0  0  0  0  0
  155.9698   44.5888  147.2894 C   0  0  1  0  0  0  0  0  0  0  0  0
  155.7581   44.4173  148.6935 O   0  0  0  0  0  0  0  0  0  0  0  0
  155.4610   45.9660  146.9181 C   0  0  2  0  0  0  0  0  0  0  0  0
  154.9587   45.9494  145.5219 N   0  0  0  0  0  0  0  0  0  0  0  0
  155.6079   46.4388  144.4469 C   0  0  0  0  0  0  0  0  0  0  0  0
  154.8941   46.2643  143.3001 N   0  0  0  0  0  0  0  0  0  0  0  0
  153.7540   45.6395  143.6350 C   0  0  0  0  0  0  0  0  0  0  0  0
  152.5439   45.1624  142.9183 C   0  0  0  0  0  0  0  0  0  0  0  0
  152.4085   45.2807  141.6815 O   0  0  0  0  0  0  0  0  0  0  0  0
  151.5940   44.5683  143.6424 N   0  0  0  0  0  0  0  0  0  0  0  0
  151.6948   44.4116  144.9714 C   0  0  0  0  0  0  0  0  0  0  0  0
  150.6736   43.8125  145.6019 N   0  0  0  0  0  0  0  0  0  0  0  0
  152.7601   44.8267  145.6960 N   0  0  0  0  0  0  0  0  0  0  0  0
  153.8036   45.4380  145.0971 C   0  0  0  0  0  0  0  0  0  0  0  0
  1  3  2  6  0  0  0
  1 32  1  0  0  0  0
  1  2  1  0  0  0  0
  1  4  1  0  0  0  0
  4  5  1  0  0  0  0
  6  5  1  1  0  0  0
  7  6  1  0  0  0  0
  8  6  1  0  0  0  0
  8 10  1  0  0  0  0
  8  9  1  6  0  0  0
 10 11  1  1  0  0  0
 12 13  1  1  0  0  0
 12  7  1  0  0  0  0
 12 10  1  0  0  0  0
 14 13  1  0  0  0  0
 15 16  1  0  0  0  0
 15 14  2  0  0  0  0
 16 23  2  0  0  0  0
 17 16  1  0  0  0  0
 17 19  1  0  0  0  0
 18 17  2  0  0  0  0
 19 20  2  0  0  0  0
 20 22  1  0  0  0  0
 20 21  1  0  0  0  0
 23 13  1  0  0  0  0
 23 22  1  0  0  0  0
 24 25  2  6  0  0  0
 24  9  1  0  0  0  0
 24 26  1  0  0  0  0
 27 28  1  0  0  0  0
 27 24  1  0  0  0  0
 29 30  1  6  0  0  0
 29 28  1  0  0  0  0
 31 32  1  1  0  0  0
 31 29  1  0  0  0  0
 33 34  1  1  0  0  0
 33 35  1  0  0  0  0
 33 31  1  0  0  0  0
 35 36  1  6  0  0  0
 35 30  1  0  0  0  0
 36 37  1  0  0  0  0
 38 37  2  0  0  0  0
 39 38  1  0  0  0  0
 40 41  2  0  0  0  0
 40 39  1  0  0  0  0
 42 40  1  0  0  0  0
 43 42  2  0  0  0  0
 43 45  1  0  0  0  0
 44 43  1  0  0  0  0
 45 46  1  0  0  0  0
 46 39  2  0  0  0  0
 46 36  1  0  0  0  0
M  END
>  <CHROM.1>
-0.45574089,11.96225931,157.39816874,43.68449897,144.12803829,-2.19926168
0.17887670,-2.09782200

>  <Name>
lig.pdb

>  <RI>
0

>  <Rbt.Current_Directory>
/home/itssahil/PROJECTS/Mol_Feturizer/New_Systems/rnas/4yb0

>  <Rbt.Executable>
rbdock ($Id: //depot/dev/client3/rdock/2013.1/src/exe/rbdock.cxx#4 $)

>  <Rbt.Library>
libRbt.so (2013.1, Build901 2013/11/27)

>  <Rbt.Parameter_File>
/export/apps/rDock/src/rDock_2013.1_src/data/scripts/dock_solv.prm

>  <Rbt.Receptor>
prm/pocket_docking_3.prm

>  <SCORE>
-50.6548

>  <SCORE.INTER>
-50.6749

>  <SCORE.INTER.CONST>
1

>  <SCORE.INTER.POLAR>
0

>  <SCORE.INTER.ROT>
2

>  <SCORE.INTER.SOLV>
29.9428

>  <SCORE.INTER.VDW>
-48.6975

>  <SCORE.INTER.norm>
-1.10163

>  <SCORE.INTRA>
0.0200738

>  <SCORE.INTRA.DIHEDRAL>
0.0926438

>  <SCORE.INTRA.DIHEDRAL.0>
4.74153

>  <SCORE.INTRA.POLAR>
0

>  <SCORE.INTRA.POLAR.0>
0

>  <SCORE.INTRA.REPUL>
0

>  <SCORE.INTRA.REPUL.0>
0

>  <SCORE.INTRA.SOLV>
0.112264

>  <SCORE.INTRA.SOLV.lig_0>
-60.4375

>  <SCORE.INTRA.VDW>
-0.0823798

>  <SCORE.INTRA.VDW.0>
-1.83689

>  <SCORE.INTRA.norm>
0.000436387

>  <SCORE.RESTR>
0

>  <SCORE.RESTR.CAVITY>
0

>  <SCORE.RESTR.norm>
0

>  <SCORE.SYSTEM>
0

>  <SCORE.SYSTEM.CONST>
0

>  <SCORE.SYSTEM.DIHEDRAL>
0

>  <SCORE.SYSTEM.SOLV>
0

>  <SCORE.SYSTEM.norm>
0

>  <SCORE.heavy>
46

>  <SCORE.norm>
-1.10119

>  <RMSD>
0.402

$$$$
lig.pdb
 OpenBabel11021811523D
libRbt.so/2013.1/901 2013/11/27
 46 52  0  0  0  0  0  0  0  0999 V2000
  158.3986   42.2112  147.3996 P   0  0  2  0  0  0  0  0  0  0  0  0
  159.3121   41.5399  148.4019 O   0  0  0  0  0  0  0  0  0  0  0  0
  157.0383   41.5933  147.2027 O   0  0  0  0  0  0  0  0  0  0  0  0
  159.1056   42.3438  145.9617 O   0  0  0  0  0  0  0  0  0  0  0  0
  160.4859   42.0550  145.7816 C   0  0  0  0  0  0  0  0  0  0  0  0
  160.9691   42.6295  144.4601 C   0  0  1  0  0  0  0  0  0  0  0  0
  161.0762   41.5616  143.5295 O   0  0  0  0  0  0  0  0  0  0  0  0
  160.0547   43.6646  143.8173 C   0  0  1  0  0  0  0  0  0  0  0  0
  160.5925   44.9643  144.0126 O   0  0  0  0  0  0  0  0  0  0  0  0
  160.1363   43.3393  142.3427 C   0  0  1  0  0  0  0  0  0  0  0  0
  161.2061   44.0761  141.7472 O   0  0  0  0  0  0  0  0  0  0  0  0
  160.5129   41.8881  142.2683 C   0  0  2  0  0  0  0  0  0  0  0  0
  159.2882   41.0768  142.0717 N   0  0  0  0  0  0  0  0  0  0  0  0
  158.8059   40.1649  142.9338 C   0  0  0  0  0  0  0  0  0  0  0  0
  157.6804   39.5926  142.4430 N   0  0  0  0  0  0  0  0  0  0  0  0
  157.4248   40.1398  141.2412 C   0  0  0  0  0  0  0  0  0  0  0  0
  156.3890   39.9871  140.1925 C   0  0  0  0  0  0  0  0  0  0  0  0
  155.4560   39.1615  140.3404 O   0  0  0  0  0  0  0  0  0  0  0  0
  156.4900   40.7546  139.0938 N   0  0  0  0  0  0  0  0  0  0  0  0
  157.4942   41.6382  138.9392 C   0  0  0  0  0  0  0  0  0  0  0  0
  157.5426   42.3874  137.8151 N   0  0  0  0  0  0  0  0  0  0  0  0
  158.4706   41.8271  139.8555 N   0  0  0  0  0  0  0  0  0  0  0  0
  158.4897   41.1196  141.0053 C   0  0  0  0  0  0  0  0  0  0  0  0
  159.7641   46.3272  143.7084 P   0  0  2  0  0  0  0  0  0  0  0  0
  159.1473   46.2360  142.3339 O   0  0  0  0  0  0  0  0  0  0  0  0
  160.6907   47.4719  144.0731 O   0  0  0  0  0  0  0  0  0  0  0  0
  158.5619   46.2489  144.7846 O   0  0  0  0  0  0  0  0  0  0  0  0
  158.7909   46.6247  146.1420 C   0  0  0  0  0  0  0  0  0  0  0  0
  157.7368   46.0723  147.1066 C   0  0  1  0  0  0  0  0  0  0  0  0
  156.5153   46.7943  146.9357 O   0  0  0  0  0  0  0  0  0  0  0  0
  157.4050   44.5929  146.9242 C   0  0  1  0  0  0  0  0  0  0  0  0
  158.1650   43.7565  147.7955 O   0  0  0  0  0  0  0  0  0  0  0  0
  155.9260   44.5501  147.2600 C   0  0  1  0  0  0  0  0  0  0  0  0
  155.7282   44.3850  148.6670 O   0  0  0  0  0  0  0  0  0  0  0  0
  155.3887   45.9149  146.8829 C   0  0  2  0  0  0  0  0  0  0  0  0
  154.8761   45.8788  145.4908 N   0  0  0  0  0  0  0  0  0  0  0  0
  155.5264   46.3339  144.4015 C   0  0  0  0  0  0  0  0  0  0  0  0
  154.8012   46.1490  143.2634 N   0  0  0  0  0  0  0  0  0  0  0  0
  153.6525   45.5522  143.6190 C   0  0  0  0  0  0  0  0  0  0  0  0
  152.4288   45.0827  142.9206 C   0  0  0  0  0  0  0  0  0  0  0  0
  152.2867   45.1779  141.6825 O   0  0  0  0  0  0  0  0  0  0  0  0
  151.4735   44.5210  143.6633 N   0  0  0  0  0  0  0  0  0  0  0  0
  151.5809   44.3900  144.9945 C   0  0  0  0  0  0  0  0  0  0  0  0
  150.5536   43.8227  145.6442 N   0  0  0  0  0  0  0  0  0  0  0  0
  152.6588   44.8003  145.7031 N   0  0  0  0  0  0  0  0  0  0  0  0
  153.7089   45.3800  145.0845 C   0  0  0  0  0  0  0  0  0  0  0  0
  1  3  2  6  0  0  0
  1 32  1  0  0  0  0
  1  2  1  0  0  0  0
  1  4  1  0  0  0  0
  4  5  1  0  0  0  0
  6  5  1  1  0  0  0
  7  6  1  0  0  0  0
  8  6  1  0  0  0  0
  8 10  1  0  0  0  0
  8  9  1  6  0  0  0
 10 11  1  6  0  0  0
 12 13  1  1  0  0  0
 12  7  1  0  0  0  0
 12 10  1  0  0  0  0
 14 13  1  0  0  0  0
 15 16  1  0  0  0  0
 15 14  2  0  0  0  0
 16 23  2  0  0  0  0
 17 16  1  0  0  0  0
 17 19  1  0  0  0  0
 18 17  2  0  0  0  0
 19 20  2  0  0  0  0
 20 22  1  0  0  0  0
 20 21  1  0  0  0  0
 23 13  1  0  0  0  0
 23 22  1  0  0  0  0
 24 25  2  6  0  0  0
 24  9  1  0  0  0  0
 24 26  1  0  0  0  0
 27 28  1  0  0  0  0
 27 24  1  0  0  0  0
 29 30  1  6  0  0  0
 29 28  1  0  0  0  0
 31 32  1  1  0  0  0
 31 29  1  0  0  0  0
 33 34  1  1  0  0  0
 33 35  1  0  0  0  0
 33 31  1  0  0  0  0
 35 36  1  6  0  0  0
 35 30  1  0  0  0  0
 36 37  1  0  0  0  0
 38 37  2  0  0  0  0
 39 38  1  0  0  0  0
 40 41  2  0  0  0  0
 40 39  1  0  0  0  0
 42 40  1  0  0  0  0
 43 42  2  0  0  0  0
 43 45  1  0  0  0  0
 44 43  1  0  0  0  0
 45 46  1  0  0  0  0
 46 39  2  0  0  0  0
 46 36  1  0  0  0  0
M  END
>  <CHROM.1>
-1.16680772,14.21001106,157.33916158,43.66309199,144.09765897,-2.23448166
0.16904633,-2.10185707

>  <Name>
lig.pdb

>  <RI>
0

>  <Rbt.Current_Directory>
/home/itssahil/PROJECTS/Mol_Feturizer/New_Systems/rnas/4yb0

>  <Rbt.Executable>
rbdock ($Id: //depot/dev/client3/rdock/2013.1/src/exe/rbdock.cxx#4 $)

>  <Rbt.Library>
libRbt.so (2013.1, Build901 2013/11/27)

>  <Rbt.Parameter_File>
/export/apps/rDock/src/rDock_2013.1_src/data/scripts/dock_solv.prm

>  <Rbt.Receptor>
prm/pocket_docking_3.prm

>  <SCORE>
-50.5723

>  <SCORE.INTER>
-50.5965

>  <SCORE.INTER.CONST>
1

>  <SCORE.INTER.POLAR>
0

>  <SCORE.INTER.ROT>
2

>  <SCORE.INTER.SOLV>
30.5053

>  <SCORE.INTER.VDW>
-48.8328

>  <SCORE.INTER.norm>
-1.09992

>  <SCORE.INTRA>
0.0242241

>  <SCORE.INTRA.DIHEDRAL>
0.099936

>  <SCORE.INTRA.DIHEDRAL.0>
4.74153

>  <SCORE.INTRA.POLAR>
0

>  <SCORE.INTRA.POLAR.0>
0

>  <SCORE.INTRA.REPUL>
0

>  <SCORE.INTRA.REPUL.0>
0

>  <SCORE.INTRA.SOLV>
0.119752

>  <SCORE.INTRA.SOLV.lig_0>
-60.4375

>  <SCORE.INTRA.VDW>
-0.0856202

>  <SCORE.INTRA.VDW.0>
-1.83689

>  <SCORE.INTRA.norm>
0.00052661

>  <SCORE.RESTR>
0

>  <SCORE.RESTR.CAVITY>
0

>  <SCORE.RESTR.norm>
0

>  <SCORE.SYSTEM>
0

>  <SCORE.SYSTEM.CONST>
0

>  <SCORE.SYSTEM.DIHEDRAL>
0

>  <SCORE.SYSTEM.SOLV>
0

>  <SCORE.SYSTEM.norm>
0

>  <SCORE.heavy>
46

>  <SCORE.norm>
-1.0994

>  <RMSD>
0.403

$$$$
lig.pdb
 OpenBabel11021811523D
libRbt.so/2013.1/901 2013/11/27
 46 52  0  0  0  0  0  0  0  0999 V2000
  158.3748   42.3065  147.3868 P   0  0  2  0  0  0  0  0  0  0  0  0
  159.2814   41.6505  148.4052 O   0  0  0  0  0  0  0  0  0  0  0  0
  157.0110   41.6933  147.1992 O   0  0  0  0  0  0  0  0  0  0  0  0
  159.0862   42.4047  145.9483 O   0  0  0  0  0  0  0  0  0  0  0  0
  160.4650   42.1035  145.7778 C   0  0  0  0  0  0  0  0  0  0  0  0
  160.9552   42.6473  144.4460 C   0  0  1  0  0  0  0  0  0  0  0  0
  161.0577   41.5595  143.5381 O   0  0  0  0  0  0  0  0  0  0  0  0
  160.0490   43.6745  143.7793 C   0  0  1  0  0  0  0  0  0  0  0  0
  160.5945   44.9746  143.9489 O   0  0  0  0  0  0  0  0  0  0  0  0
  160.1321   43.3181  142.3120 C   0  0  1  0  0  0  0  0  0  0  0  0
  161.2081   44.0356  141.7042 O   0  0  0  0  0  0  0  0  0  0  0  0
  160.4997   41.8633  142.2688 C   0  0  2  0  0  0  0  0  0  0  0  0
  159.2703   41.0558  142.0860 N   0  0  0  0  0  0  0  0  0  0  0  0
  158.8066   40.1297  142.9431 C   0  0  0  0  0  0  0  0  0  0  0  0
  157.6701   39.5662  142.4679 N   0  0  0  0  0  0  0  0  0  0  0  0
  157.3882   40.1336  141.2816 C   0  0  0  0  0  0  0  0  0  0  0  0
  156.3292   39.9990  140.2538 C   0  0  0  0  0  0  0  0  0  0  0  0
  155.3991   39.1713  140.4085 O   0  0  0  0  0  0  0  0  0  0  0  0
  156.4062   40.7848  139.1661 N   0  0  0  0  0  0  0  0  0  0  0  0
  157.4073   41.6705  139.0042 C   0  0  0  0  0  0  0  0  0  0  0  0
  157.4313   42.4385  137.8920 N   0  0  0  0  0  0  0  0  0  0  0  0
  158.4041   41.8436  139.9015 N   0  0  0  0  0  0  0  0  0  0  0  0
  158.4483   41.1168  141.0385 C   0  0  0  0  0  0  0  0  0  0  0  0
  159.7757   46.3360  143.6144 P   0  0  2  0  0  0  0  0  0  0  0  0
  159.1617   46.2201  142.2404 O   0  0  0  0  0  0  0  0  0  0  0  0
  160.7087   47.4822  143.9575 O   0  0  0  0  0  0  0  0  0  0  0  0
  158.5703   46.2878  144.6887 O   0  0  0  0  0  0  0  0  0  0  0  0
  158.7983   46.6903  146.0387 C   0  0  0  0  0  0  0  0  0  0  0  0
  157.7383   46.1648  147.0117 C   0  0  1  0  0  0  0  0  0  0  0  0
  156.5218   46.8908  146.8227 O   0  0  0  0  0  0  0  0  0  0  0  0
  157.3975   44.6840  146.8594 C   0  0  1  0  0  0  0  0  0  0  0  0
  158.1500   43.8612  147.7498 O   0  0  0  0  0  0  0  0  0  0  0  0
  155.9174   44.6577  147.1921 C   0  0  1  0  0  0  0  0  0  0  0  0
  155.7151   44.5231  148.6016 O   0  0  0  0  0  0  0  0  0  0  0  0
  155.3898   46.0177  146.7852 C   0  0  2  0  0  0  0  0  0  0  0  0
  154.8805   45.9558  145.3928 N   0  0  0  0  0  0  0  0  0  0  0  0
  155.5365   46.3838  144.2960 C   0  0  0  0  0  0  0  0  0  0  0  0
  154.8130   46.1799  143.1601 N   0  0  0  0  0  0  0  0  0  0  0  0
  153.6594   45.5982  143.5251 C   0  0  0  0  0  0  0  0  0  0  0  0
  152.4343   45.1223  142.8334 C   0  0  0  0  0  0  0  0  0  0  0  0
  152.2959   45.1925  141.5933 O   0  0  0  0  0  0  0  0  0  0  0  0
  151.4735   44.5826  143.5852 N   0  0  0  0  0  0  0  0  0  0  0  0
  151.5767   44.4787  144.9192 C   0  0  0  0  0  0  0  0  0  0  0  0
  150.5440   43.9320  145.5779 N   0  0  0  0  0  0  0  0  0  0  0  0
  152.6555   44.8967  145.6219 N   0  0  0  0  0  0  0  0  0  0  0  0
  153.7110   45.4563  144.9940 C   0  0  0  0  0  0  0  0  0  0  0  0
  1  3  2  6  0  0  0
  1 32  1  0  0  0  0
  1  2  1  0  0  0  0
  1  4  1  0  0  0  0
  4  5  1  0  0  0  0
  6  5  1  1  0  0  0
  7  6  1  0  0  0  0
  8  6  1  0  0  0  0
  8 10  1  0  0  0  0
  8  9  1  6  0  0  0
 10 11  1  6  0  0  0
 12 13  1  1  0  0  0
 12  7  1  0  0  0  0
 12 10  1  0  0  0  0
 14 13  1  0  0  0  0
 15 16  1  0  0  0  0
 15 14  2  0  0  0  0
 16 23  2  0  0  0  0
 17 16  1  0  0  0  0
 17 19  1  0  0  0  0
 18 17  2  0  0  0  0
 19 20  2  0  0  0  0
 20 22  1  0  0  0  0
 20 21  1  0  0  0  0
 23 13  1  0  0  0  0
 23 22  1  0  0  0  0
 24 25  2  6  0  0  0
 24  9  1  0  0  0  0
 24 26  1  0  0  0  0
 27 28  1  0  0  0  0
 27 24  1  0  0  0  0
 29 30  1  6  0  0  0
 29 28  1  0  0  0  0
 31 32  1  1  0  0  0
 31 29  1  0  0  0  0
 33 34  1  1  0  0  0
 33 35  1  0  0  0  0
 33 31  1  0  0  0  0
 35 36  1  6  0  0  0
 35 30  1  0  0  0  0
 36 37  1  0  0  0  0
 38 37  2  0  0  0  0
 39 38  1  0  0  0  0
 40 41  2  0  0  0  0
 40 39  1  0  0  0  0
 42 40  1  0  0  0  0
 43 42  2  0  0  0  0
 43 45  1  0  0  0  0
 44 43  1  0  0  0  0
 45 46  1  0  0  0  0
 46 39  2  0  0  0  0
 46 36  1  0  0  0  0
M  END
>  <CHROM.1>
-3.77304455,14.22667474,157.32504776,43.70642674,144.05882129,-2.26341868
0.17840294,-2.11922902

>  <Name>
lig.pdb

>  <RI>
0

>  <Rbt.Current_Directory>
/home/itssahil/PROJECTS/Mol_Feturizer/New_Systems/rnas/4yb0

>  <Rbt.Executable>
rbdock ($Id: //depot/dev/client3/rdock/2013.1/src/exe/rbdock.cxx#4 $)

>  <Rbt.Library>
libRbt.so (2013.1, Build901 2013/11/27)

>  <Rbt.Parameter_File>
/export/apps/rDock/src/rDock_2013.1_src/data/scripts/dock_solv.prm

>  <Rbt.Receptor>
prm/pocket_docking_2.prm

>  <SCORE>
-50.3448

>  <SCORE.INTER>
-50.4072

>  <SCORE.INTER.CONST>
1

>  <SCORE.INTER.POLAR>
0

>  <SCORE.INTER.ROT>
2

>  <SCORE.INTER.SOLV>
30.5492

>  <SCORE.INTER.VDW>
-48.7212

>  <SCORE.INTER.norm>
-1.09581

>  <SCORE.INTRA>
0.0527581

>  <SCORE.INTRA.DIHEDRAL>
0.106182

>  <SCORE.INTRA.DIHEDRAL.0>
4.74153

>  <SCORE.INTRA.POLAR>
0

>  <SCORE.INTRA.POLAR.0>
0

>  <SCORE.INTRA.REPUL>
0

>  <SCORE.INTRA.REPUL.0>
0

>  <SCORE.INTRA.SOLV>
0.128526

>  <SCORE.INTRA.SOLV.lig_0>
-60.4375

>  <SCORE.INTRA.VDW>
-0.064596

>  <SCORE.INTRA.VDW.0>
-1.83689

>  <SCORE.INTRA.norm>
0.00114692

>  <SCORE.RESTR>
0.00963217

>  <SCORE.RESTR.CAVITY>
0.00963217

>  <SCORE.RESTR.norm>
0.000209395

>  <SCORE.SYSTEM>
0

>  <SCORE.SYSTEM.CONST>
0

>  <SCORE.SYSTEM.DIHEDRAL>
0

>  <SCORE.SYSTEM.SOLV>
0

>  <SCORE.SYSTEM.norm>
0

>  <SCORE.heavy>
46

>  <SCORE.norm>
-1.09445

>  <RMSD>
0.404

$$$$
lig.pdb
 OpenBabel11021811523D
libRbt.so/2013.1/901 2013/11/27
 46 52  0  0  0  0  0  0  0  0999 V2000
  159.8112   46.1346  143.4587 P   0  0  2  0  0  0  0  0  0  0  0  0
  160.5061   47.4427  143.7681 O   0  0  0  0  0  0  0  0  0  0  0  0
  159.3141   45.9486  142.0483 O   0  0  0  0  0  0  0  0  0  0  0  0
  158.5849   45.8720  144.4648 O   0  0  0  0  0  0  0  0  0  0  0  0
  158.3750   46.6866  145.6109 C   0  0  0  0  0  0  0  0  0  0  0  0
  157.4207   45.9964  146.5715 C   0  0  1  0  0  0  0  0  0  0  0  0
  156.1471   46.6127  146.4445 O   0  0  0  0  0  0  0  0  0  0  0  0
  157.2003   44.5089  146.3273 C   0  0  1  0  0  0  0  0  0  0  0  0
  157.9269   43.7543  147.2860 O   0  0  0  0  0  0  0  0  0  0  0  0
  155.7251   44.3215  146.6022 C   0  0  1  0  0  0  0  0  0  0  0  0
  155.5301   44.0112  147.9834 O   0  0  0  0  0  0  0  0  0  0  0  0
  155.0952   45.6631  146.3643 C   0  0  2  0  0  0  0  0  0  0  0  0
  154.5279   45.6987  144.9955 N   0  0  0  0  0  0  0  0  0  0  0  0
  155.1450   46.1839  143.9041 C   0  0  0  0  0  0  0  0  0  0  0  0
  154.3436   46.0798  142.8168 N   0  0  0  0  0  0  0  0  0  0  0  0
  153.1850   45.5181  143.2055 C   0  0  0  0  0  0  0  0  0  0  0  0
  151.9131   45.1249  142.5546 C   0  0  0  0  0  0  0  0  0  0  0  0
  151.7449   45.3181  141.3265 O   0  0  0  0  0  0  0  0  0  0  0  0
  150.9621   44.5648  143.3216 N   0  0  0  0  0  0  0  0  0  0  0  0
  151.1470   44.3610  144.6397 C   0  0  0  0  0  0  0  0  0  0  0  0
  150.1572   43.7890  145.3611 N   0  0  0  0  0  0  0  0  0  0  0  0
  152.2813   44.6959  145.2955 N   0  0  0  0  0  0  0  0  0  0  0  0
  153.3164   45.2681  144.6443 C   0  0  0  0  0  0  0  0  0  0  0  0
  158.1521   42.1503  147.1740 P   0  0  2  0  0  0  0  0  0  0  0  0
  156.8265   41.4815  146.9027 O   0  0  0  0  0  0  0  0  0  0  0  0
  158.9914   41.7593  148.3759 O   0  0  0  0  0  0  0  0  0  0  0  0
  159.0439   42.0189  145.8335 O   0  0  0  0  0  0  0  0  0  0  0  0
  160.4480   42.2690  145.8806 C   0  0  0  0  0  0  0  0  0  0  0  0
  161.0553   42.5583  144.5044 C   0  0  1  0  0  0  0  0  0  0  0  0
  161.1257   41.3438  143.7541 O   0  0  0  0  0  0  0  0  0  0  0  0
  160.2792   43.5599  143.6522 C   0  0  1  0  0  0  0  0  0  0  0  0
  160.7802   44.8890  143.7884 O   0  0  0  0  0  0  0  0  0  0  0  0
  160.4937   43.0242  142.2489 C   0  0  1  0  0  0  0  0  0  0  0  0
  161.7047   43.5383  141.6876 O   0  0  0  0  0  0  0  0  0  0  0  0
  160.6677   41.5286  142.4120 C   0  0  2  0  0  0  0  0  0  0  0  0
  159.3533   40.8568  142.2593 N   0  0  0  0  0  0  0  0  0  0  0  0
  158.7868   40.0249  143.1557 C   0  0  0  0  0  0  0  0  0  0  0  0
  157.5709   39.5777  142.7352 N   0  0  0  0  0  0  0  0  0  0  0  0
  157.3360   40.1376  141.5379 C   0  0  0  0  0  0  0  0  0  0  0  0
  156.2487   40.0883  140.5274 C   0  0  0  0  0  0  0  0  0  0  0  0
  155.2096   39.4143  140.6949 O   0  0  0  0  0  0  0  0  0  0  0  0
  156.4025   40.8187  139.4217 N   0  0  0  0  0  0  0  0  0  0  0  0
  157.4962   41.5635  139.1979 C   0  0  0  0  0  0  0  0  0  0  0  0
  157.5523   42.2475  138.0454 N   0  0  0  0  0  0  0  0  0  0  0  0
  158.5318   41.6531  140.0648 N   0  0  0  0  0  0  0  0  0  0  0  0
  158.5130   40.9751  141.2316 C   0  0  0  0  0  0  0  0  0  0  0  0
  1  3  2  6  0  0  0
  1 32  1  0  0  0  0
  1  2  1  0  0  0  0
  1  4  1  0  0  0  0
  4  5  1  0  0  0  0
  6  5  1  6  0  0  0
  7  6  1  0  0  0  0
  8  6  1  0  0  0  0
  8 10  1  0  0  0  0
  8  9  1  1  0  0  0
 10 11  1  1  0  0  0
 12 13  1  6  0  0  0
 12  7  1  0  0  0  0
 12 10  1  0  0  0  0
 14 13  1  0  0  0  0
 15 16  1  0  0  0  0
 15 14  2  0  0  0  0
 16 23  2  0  0  0  0
 17 16  1  0  0  0  0
 17 19  1  0  0  0  0
 18 17  2  0  0  0  0
 19 20  2  0  0  0  0
 20 22  1  0  0  0  0
 20 21  1  0  0  0  0
 23 13  1  0  0  0  0
 23 22  1  0  0  0  0
 24 25  2  6  0  0  0
 24  9  1  0  0  0  0
 24 26  1  0  0  0  0
 27 28  1  0  0  0  0
 27 24  1  0  0  0  0
 29 30  1  6  0  0  0
 29 28  1  0  0  0  0
 31 32  1  6  0  0  0
 31 29  1  0  0  0  0
 33 34  1  1  0  0  0
 33 35  1  0  0  0  0
 33 31  1  0  0  0  0
 35 36  1  1  0  0  0
 35 30  1  0  0  0  0
 36 37  1  0  0  0  0
 38 37  2  0  0  0  0
 39 38  1  0  0  0  0
 40 41  2  0  0  0  0
 40 39  1  0  0  0  0
 42 40  1  0  0  0  0
 43 42  2  0  0  0  0
 43 45  1  0  0  0  0
 44 43  1  0  0  0  0
 45 46  1  0  0  0  0
 46 39  2  0  0  0  0
 46 36  1  0  0  0  0
M  END
>  <CHROM.1>
20.31345886,-10.18494171,157.19552398,43.55682058,143.92013219,-0.38713643
-0.18815128,1.01619794

>  <Name>
lig.pdb

>  <RI>
0

>  <Rbt.Current_Directory>
/home/itssahil/PROJECTS/Mol_Feturizer/New_Systems/rnas/4yb0

>  <Rbt.Executable>
rbdock ($Id: //depot/dev/client3/rdock/2013.1/src/exe/rbdock.cxx#4 $)

>  <Rbt.Library>
libRbt.so (2013.1, Build901 2013/11/27)

>  <Rbt.Parameter_File>
/export/apps/rDock/src/rDock_2013.1_src/data/scripts/dock_solv.prm

>  <Rbt.Receptor>
prm/pocket_docking_4.prm

>  <SCORE>
-53.6208

>  <SCORE.INTER>
-53.5209

>  <SCORE.INTER.CONST>
1

>  <SCORE.INTER.POLAR>
0

>  <SCORE.INTER.ROT>
2

>  <SCORE.INTER.SOLV>
31.4624

>  <SCORE.INTER.VDW>
-51.1014

>  <SCORE.INTER.norm>
-1.1635

>  <SCORE.INTRA>
-0.0998633

>  <SCORE.INTRA.DIHEDRAL>
-0.0138628

>  <SCORE.INTRA.DIHEDRAL.0>
4.74153

>  <SCORE.INTRA.POLAR>
0

>  <SCORE.INTRA.POLAR.0>
0

>  <SCORE.INTRA.REPUL>
0

>  <SCORE.INTRA.REPUL.0>
0

>  <SCORE.INTRA.SOLV>
0.0047142

>  <SCORE.INTRA.SOLV.lig_0>
-60.4375

>  <SCORE.INTRA.VDW>
-0.095289

>  <SCORE.INTRA.VDW.0>
-1.83689

>  <SCORE.INTRA.norm>
-0.00217094

>  <SCORE.RESTR>
0

>  <SCORE.RESTR.CAVITY>
0

>  <SCORE.RESTR.norm>
0

>  <SCORE.SYSTEM>
0

>  <SCORE.SYSTEM.CONST>
0

>  <SCORE.SYSTEM.DIHEDRAL>
0

>  <SCORE.SYSTEM.SOLV>
0

>  <SCORE.SYSTEM.norm>
0

>  <SCORE.heavy>
46

>  <SCORE.norm>
-1.16567

>  <RMSD>
0.406

$$$$
lig.pdb
 OpenBabel11021811523D
libRbt.so/2013.1/901 2013/11/27
 46 52  0  0  0  0  0  0  0  0999 V2000
  158.3940   42.2557  147.4100 P   0  0  2  0  0  0  0  0  0  0  0  0
  159.3016   41.5849  148.4180 O   0  0  0  0  0  0  0  0  0  0  0  0
  157.0298   41.6457  147.2153 O   0  0  0  0  0  0  0  0  0  0  0  0
  159.1038   42.3739  145.9722 O   0  0  0  0  0  0  0  0  0  0  0  0
  160.4824   42.0746  145.7959 C   0  0  0  0  0  0  0  0  0  0  0  0
  160.9712   42.6370  144.4713 C   0  0  1  0  0  0  0  0  0  0  0  0
  161.0722   41.5623  143.5479 O   0  0  0  0  0  0  0  0  0  0  0  0
  160.0647   43.6740  143.8203 C   0  0  1  0  0  0  0  0  0  0  0  0
  160.6109   44.9713  144.0077 O   0  0  0  0  0  0  0  0  0  0  0  0
  160.1459   43.3384  142.3480 C   0  0  1  0  0  0  0  0  0  0  0  0
  161.2215   44.0640  141.7492 O   0  0  0  0  0  0  0  0  0  0  0  0
  160.5129   41.8842  142.2838 C   0  0  2  0  0  0  0  0  0  0  0  0
  159.2830   41.0799  142.0909 N   0  0  0  0  0  0  0  0  0  0  0  0
  158.7901   40.1813  142.9610 C   0  0  0  0  0  0  0  0  0  0  0  0
  157.6624   39.6120  142.4717 N   0  0  0  0  0  0  0  0  0  0  0  0
  157.4161   40.1476  141.2628 C   0  0  0  0  0  0  0  0  0  0  0  0
  156.3836   39.9910  140.2114 C   0  0  0  0  0  0  0  0  0  0  0  0
  155.4439   39.1741  140.3644 O   0  0  0  0  0  0  0  0  0  0  0  0
  156.4950   40.7454  139.1046 N   0  0  0  0  0  0  0  0  0  0  0  0
  157.5065   41.6197  138.9446 C   0  0  0  0  0  0  0  0  0  0  0  0
  157.5654   42.3560  137.8125 N   0  0  0  0  0  0  0  0  0  0  0  0
  158.4805   41.8115  139.8630 N   0  0  0  0  0  0  0  0  0  0  0  0
  158.4894   41.1168  141.0207 C   0  0  0  0  0  0  0  0  0  0  0  0
  159.7922   46.3377  143.6934 P   0  0  2  0  0  0  0  0  0  0  0  0
  159.1766   46.2416  142.3187 O   0  0  0  0  0  0  0  0  0  0  0  0
  160.7261   47.4785  144.0517 O   0  0  0  0  0  0  0  0  0  0  0  0
  158.5881   46.2747  144.7684 O   0  0  0  0  0  0  0  0  0  0  0  0
  158.8179   46.6580  146.1237 C   0  0  0  0  0  0  0  0  0  0  0  0
  157.7588   46.1191  147.0904 C   0  0  1  0  0  0  0  0  0  0  0  0
  156.5423   46.8482  146.9131 O   0  0  0  0  0  0  0  0  0  0  0  0
  157.4172   44.6408  146.9175 C   0  0  1  0  0  0  0  0  0  0  0  0
  158.1703   43.8051  147.7952 O   0  0  0  0  0  0  0  0  0  0  0  0
  155.9374   44.6103  147.2515 C   0  0  1  0  0  0  0  0  0  0  0  0
  155.7367   44.4559  148.6592 O   0  0  0  0  0  0  0  0  0  0  0  0
  155.4100   45.9762  146.8646 C   0  0  2  0  0  0  0  0  0  0  0  0
  154.8990   45.9343  145.4720 N   0  0  0  0  0  0  0  0  0  0  0  0
  155.5517   46.3822  144.3812 C   0  0  0  0  0  0  0  0  0  0  0  0
  154.8275   46.1933  143.2432 N   0  0  0  0  0  0  0  0  0  0  0  0
  153.6768   45.6012  143.6004 C   0  0  0  0  0  0  0  0  0  0  0  0
  152.4528   45.1313  142.9029 C   0  0  0  0  0  0  0  0  0  0  0  0
  152.3124   45.2206  141.6642 O   0  0  0  0  0  0  0  0  0  0  0  0
  151.4952   44.5758  143.6473 N   0  0  0  0  0  0  0  0  0  0  0  0
  151.6006   44.4513  144.9793 C   0  0  0  0  0  0  0  0  0  0  0  0
  150.5711   43.8899  145.6306 N   0  0  0  0  0  0  0  0  0  0  0  0
  152.6787   44.8625  145.6871 N   0  0  0  0  0  0  0  0  0  0  0  0
  153.7309   45.4363  145.0669 C   0  0  0  0  0  0  0  0  0  0  0  0
  1  3  2  6  0  0  0
  1 32  1  0  0  0  0
  1  2  1  0  0  0  0
  1  4  1  0  0  0  0
  4  5  1  0  0  0  0
  6  5  1  1  0  0  0
  7  6  1  0  0  0  0
  8  6  1  0  0  0  0
  8 10  1  0  0  0  0
  8  9  1  6  0  0  0
 10 11  1  6  0  0  0
 12 13  1  1  0  0  0
 12  7  1  0  0  0  0
 12 10  1  0  0  0  0
 14 13  1  0  0  0  0
 15 16  1  0  0  0  0
 15 14  2  0  0  0  0
 16 23  2  0  0  0  0
 17 16  1  0  0  0  0
 17 19  1  0  0  0  0
 18 17  2  0  0  0  0
 19 20  2  0  0  0  0
 20 22  1  0  0  0  0
 20 21  1  0  0  0  0
 23 13  1  0  0  0  0
 23 22  1  0  0  0  0
 24 25  2  6  0  0  0
 24  9  1  0  0  0  0
 24 26  1  0  0  0  0
 27 28  1  0  0  0  0
 27 24  1  0  0  0  0
 29 30  1  6  0  0  0
 29 28  1  0  0  0  0
 31 32  1  1  0  0  0
 31 29  1  0  0  0  0
 33 34  1  1  0  0  0
 33 35  1  0  0  0  0
 33 31  1  0  0  0  0
 35 36  1  6  0  0  0
 35 30  1  0  0  0  0
 36 37  1  0  0  0  0
 38 37  2  0  0  0  0
 39 38  1  0  0  0  0
 40 41  2  0  0  0  0
 40 39  1  0  0  0  0
 42 40  1  0  0  0  0
 43 42  2  0  0  0  0
 43 45  1  0  0  0  0
 44 43  1  0  0  0  0
 45 46  1  0  0  0  0
 46 39  2  0  0  0  0
 46 36  1  0  0  0  0
M  END
>  <CHROM.1>
-0.85651011,13.95093621,157.35029350,43.69024634,144.09610899,-2.22614463
0.17414197,-2.10956014

>  <Name>
lig.pdb

>  <RI>
0

>  <Rbt.Current_Directory>
/home/itssahil/PROJECTS/Mol_Feturizer/New_Systems/rnas/4yb0

>  <Rbt.Executable>
rbdock ($Id: //depot/dev/client3/rdock/2013.1/src/exe/rbdock.cxx#4 $)

>  <Rbt.Library>
libRbt.so (2013.1, Build901 2013/11/27)

>  <Rbt.Parameter_File>
/export/apps/rDock/src/rDock_2013.1_src/data/scripts/dock_solv.prm

>  <Rbt.Receptor>
prm/pocket_docking_3.prm

>  <SCORE>
-50.6528

>  <SCORE.INTER>
-50.6739

>  <SCORE.INTER.CONST>
1

>  <SCORE.INTER.POLAR>
0

>  <SCORE.INTER.ROT>
2

>  <SCORE.INTER.SOLV>
30.4177

>  <SCORE.INTER.VDW>
-48.8552

>  <SCORE.INTER.norm>
-1.10161

>  <SCORE.INTRA>
0.0211188

>  <SCORE.INTRA.DIHEDRAL>
0.0985748

>  <SCORE.INTRA.DIHEDRAL.0>
4.74153

>  <SCORE.INTRA.POLAR>
0

>  <SCORE.INTRA.POLAR.0>
0

>  <SCORE.INTRA.REPUL>
0

>  <SCORE.INTRA.REPUL.0>
0

>  <SCORE.INTRA.SOLV>
0.117889

>  <SCORE.INTRA.SOLV.lig_0>
-60.4375

>  <SCORE.INTRA.VDW>
-0.0871133

>  <SCORE.INTRA.VDW.0>
-1.83689

>  <SCORE.INTRA.norm>
0.000459103

>  <SCORE.RESTR>
0

>  <SCORE.RESTR.CAVITY>
0

>  <SCORE.RESTR.norm>
0

>  <SCORE.SYSTEM>
0

>  <SCORE.SYSTEM.CONST>
0

>  <SCORE.SYSTEM.DIHEDRAL>
0

>  <SCORE.SYSTEM.SOLV>
0

>  <SCORE.SYSTEM.norm>
0

>  <SCORE.heavy>
46

>  <SCORE.norm>
-1.10115

>  <RMSD>
0.407

$$$$
lig.pdb
 OpenBabel11021811523D
libRbt.so/2013.1/901 2013/11/27
 46 52  0  0  0  0  0  0  0  0999 V2000
  158.3788   42.3182  147.3917 P   0  0  2  0  0  0  0  0  0  0  0  0
  159.2872   41.6653  148.4106 O   0  0  0  0  0  0  0  0  0  0  0  0
  157.0178   41.6995  147.2023 O   0  0  0  0  0  0  0  0  0  0  0  0
  159.0913   42.4203  145.9539 O   0  0  0  0  0  0  0  0  0  0  0  0
  160.4716   42.1249  145.7846 C   0  0  0  0  0  0  0  0  0  0  0  0
  160.9608   42.6717  144.4536 C   0  0  1  0  0  0  0  0  0  0  0  0
  161.0687   41.5850  143.5451 O   0  0  0  0  0  0  0  0  0  0  0  0
  160.0510   43.6956  143.7868 C   0  0  1  0  0  0  0  0  0  0  0  0
  160.5910   44.9978  143.9579 O   0  0  0  0  0  0  0  0  0  0  0  0
  160.1371   43.3406  142.3193 C   0  0  1  0  0  0  0  0  0  0  0  0
  161.2107   44.0629  141.7131 O   0  0  0  0  0  0  0  0  0  0  0  0
  160.5107   41.8873  142.2755 C   0  0  2  0  0  0  0  0  0  0  0  0
  159.2849   41.0749  142.0909 N   0  0  0  0  0  0  0  0  0  0  0  0
  158.8243   40.1461  142.9468 C   0  0  0  0  0  0  0  0  0  0  0  0
  157.6905   39.5783  142.4701 N   0  0  0  0  0  0  0  0  0  0  0  0
  157.4073   40.1455  141.2840 C   0  0  0  0  0  0  0  0  0  0  0  0
  156.3497   40.0074  140.2552 C   0  0  0  0  0  0  0  0  0  0  0  0
  155.4230   39.1758  140.4083 O   0  0  0  0  0  0  0  0  0  0  0  0
  156.4244   40.7945  139.1683 N   0  0  0  0  0  0  0  0  0  0  0  0
  157.4220   41.6845  139.0079 C   0  0  0  0  0  0  0  0  0  0  0  0
  157.4438   42.4536  137.8965 N   0  0  0  0  0  0  0  0  0  0  0  0
  158.4173   41.8610  139.9063 N   0  0  0  0  0  0  0  0  0  0  0  0
  158.4635   41.1334  141.0427 C   0  0  0  0  0  0  0  0  0  0  0  0
  159.7668   46.3561  143.6234 P   0  0  2  0  0  0  0  0  0  0  0  0
  159.1547   46.2386  142.2487 O   0  0  0  0  0  0  0  0  0  0  0  0
  160.6948   47.5059  143.9682 O   0  0  0  0  0  0  0  0  0  0  0  0
  158.5607   46.3021  144.6965 O   0  0  0  0  0  0  0  0  0  0  0  0
  158.7857   46.7047  146.0470 C   0  0  0  0  0  0  0  0  0  0  0  0
  157.7269   46.1741  147.0186 C   0  0  1  0  0  0  0  0  0  0  0  0
  156.5076   46.8952  146.8288 O   0  0  0  0  0  0  0  0  0  0  0  0
  157.3923   44.6920  146.8649 C   0  0  1  0  0  0  0  0  0  0  0  0
  158.1473   43.8717  147.7555 O   0  0  0  0  0  0  0  0  0  0  0  0
  155.9120   44.6593  147.1961 C   0  0  1  0  0  0  0  0  0  0  0  0
  155.7089   44.5230  148.6054 O   0  0  0  0  0  0  0  0  0  0  0  0
  155.3792   46.0174  146.7897 C   0  0  2  0  0  0  0  0  0  0  0  0
  154.8715   45.9544  145.3967 N   0  0  0  0  0  0  0  0  0  0  0  0
  155.5330   46.3721  144.2992 C   0  0  0  0  0  0  0  0  0  0  0  0
  154.8095   46.1700  143.1630 N   0  0  0  0  0  0  0  0  0  0  0  0
  153.6502   45.6001  143.5285 C   0  0  0  0  0  0  0  0  0  0  0  0
  152.4221   45.1322  142.8368 C   0  0  0  0  0  0  0  0  0  0  0  0
  152.2862   45.1987  141.5961 O   0  0  0  0  0  0  0  0  0  0  0  0
  151.4553   44.6042  143.5892 N   0  0  0  0  0  0  0  0  0  0  0  0
  151.5555   44.5048  144.9237 C   0  0  0  0  0  0  0  0  0  0  0  0
  150.5170   43.9699  145.5830 N   0  0  0  0  0  0  0  0  0  0  0  0
  152.6369   44.9160  145.6265 N   0  0  0  0  0  0  0  0  0  0  0  0
  153.6982   45.4637  144.9981 C   0  0  0  0  0  0  0  0  0  0  0  0
  1  3  2  6  0  0  0
  1 32  1  0  0  0  0
  1  2  1  0  0  0  0
  1  4  1  0  0  0  0
  4  5  1  0  0  0  0
  6  5  1  1  0  0  0
  7  6  1  0  0  0  0
  8  6  1  0  0  0  0
  8 10  1  0  0  0  0
  8  9  1  6  0  0  0
 10 11  1  6  0  0  0
 12 13  1  1  0  0  0
 12  7  1  0  0  0  0
 12 10  1  0  0  0  0
 14 13  1  0  0  0  0
 15 16  1  0  0  0  0
 15 14  2  0  0  0  0
 16 23  2  0  0  0  0
 17 16  1  0  0  0  0
 17 19  1  0  0  0  0
 18 17  2  0  0  0  0
 19 20  2  0  0  0  0
 20 22  1  0  0  0  0
 20 21  1  0  0  0  0
 23 13  1  0  0  0  0
 23 22  1  0  0  0  0
 24 25  2  6  0  0  0
 24  9  1  0  0  0  0
 24 26  1  0  0  0  0
 27 28  1  0  0  0  0
 27 24  1  0  0  0  0
 29 30  1  6  0  0  0
 29 28  1  0  0  0  0
 31 32  1  1  0  0  0
 31 29  1  0  0  0  0
 33 34  1  1  0  0  0
 33 35  1  0  0  0  0
 33 31  1  0  0  0  0
 35 36  1  6  0  0  0
 35 30  1  0  0  0  0
 36 37  1  0  0  0  0
 38 37  2  0  0  0  0
 39 38  1  0  0  0  0
 40 41  2  0  0  0  0
 40 39  1  0  0  0  0
 42 40  1  0  0  0  0
 43 42  2  0  0  0  0
 43 45  1  0  0  0  0
 44 43  1  0  0  0  0
 45 46  1  0  0  0  0
 46 39  2  0  0  0  0
 46 36  1  0  0  0  0
M  END
>  <CHROM.1>
-3.78519297,15.02085675,157.32483046,43.71999622,144.06411200,-2.27496932
0.17880208,-2.11742574

>  <Name>
lig.pdb

>  <RI>
0

>  <Rbt.Current_Directory>
/home/itssahil/PROJECTS/Mol_Feturizer/New_Systems/rnas/4yb0

>  <Rbt.Executable>
rbdock ($Id: //depot/dev/client3/rdock/2013.1/src/exe/rbdock.cxx#4 $)

>  <Rbt.Library>
libRbt.so (2013.1, Build901 2013/11/27)

>  <Rbt.Parameter_File>
/export/apps/rDock/src/rDock_2013.1_src/data/scripts/dock_solv.prm

>  <Rbt.Receptor>
prm/pocket_docking_2.prm

>  <SCORE>
-50.3213

>  <SCORE.INTER>
-50.3821

>  <SCORE.INTER.CONST>
1

>  <SCORE.INTER.POLAR>
0

>  <SCORE.INTER.ROT>
2

>  <SCORE.INTER.SOLV>
30.5277

>  <SCORE.INTER.VDW>
-48.6973

>  <SCORE.INTER.norm>
-1.09526

>  <SCORE.INTRA>
0.0519267

>  <SCORE.INTRA.DIHEDRAL>
0.108057

>  <SCORE.INTRA.DIHEDRAL.0>
4.74153

>  <SCORE.INTRA.POLAR>
0

>  <SCORE.INTRA.POLAR.0>
0

>  <SCORE.INTRA.REPUL>
0

>  <SCORE.INTRA.REPUL.0>
0

>  <SCORE.INTRA.SOLV>
0.130873

>  <SCORE.INTRA.SOLV.lig_0>
-60.4375

>  <SCORE.INTRA.VDW>
-0.0675383

>  <SCORE.INTRA.VDW.0>
-1.83689

>  <SCORE.INTRA.norm>
0.00112884

>  <SCORE.RESTR>
0.00888505

>  <SCORE.RESTR.CAVITY>
0.00888505

>  <SCORE.RESTR.norm>
0.000193153

>  <SCORE.SYSTEM>
0

>  <SCORE.SYSTEM.CONST>
0

>  <SCORE.SYSTEM.DIHEDRAL>
0

>  <SCORE.SYSTEM.SOLV>
0

>  <SCORE.SYSTEM.norm>
0

>  <SCORE.heavy>
46

>  <SCORE.norm>
-1.09394

>  <RMSD>
0.408

$$$$
lig.pdb
 OpenBabel11021811523D
libRbt.so/2013.1/901 2013/11/27
 46 52  0  0  0  0  0  0  0  0999 V2000
  158.3652   42.3229  147.4071 P   0  0  2  0  0  0  0  0  0  0  0  0
  159.2734   41.6746  148.4291 O   0  0  0  0  0  0  0  0  0  0  0  0
  157.0065   41.6997  147.2159 O   0  0  0  0  0  0  0  0  0  0  0  0
  159.0804   42.4245  145.9707 O   0  0  0  0  0  0  0  0  0  0  0  0
  160.4619   42.1330  145.8048 C   0  0  0  0  0  0  0  0  0  0  0  0
  160.9523   42.6788  144.4739 C   0  0  1  0  0  0  0  0  0  0  0  0
  161.0654   41.5908  143.5676 O   0  0  0  0  0  0  0  0  0  0  0  0
  160.0409   43.6987  143.8032 C   0  0  1  0  0  0  0  0  0  0  0  0
  160.5765   45.0029  143.9730 O   0  0  0  0  0  0  0  0  0  0  0  0
  160.1311   43.3413  142.3366 C   0  0  1  0  0  0  0  0  0  0  0  0
  161.2038   44.0657  141.7313 O   0  0  0  0  0  0  0  0  0  0  0  0
  160.5092   41.8891  142.2962 C   0  0  2  0  0  0  0  0  0  0  0  0
  159.2863   41.0726  142.1105 N   0  0  0  0  0  0  0  0  0  0  0  0
  158.8315   40.1378  142.9629 C   0  0  0  0  0  0  0  0  0  0  0  0
  157.6988   39.5677  142.4861 N   0  0  0  0  0  0  0  0  0  0  0  0
  157.4105   40.1396  141.3035 C   0  0  0  0  0  0  0  0  0  0  0  0
  156.3511   40.0023  140.2765 C   0  0  0  0  0  0  0  0  0  0  0  0
  155.4281   39.1662  140.4278 O   0  0  0  0  0  0  0  0  0  0  0  0
  156.4200   40.7951  139.1934 N   0  0  0  0  0  0  0  0  0  0  0  0
  157.4136   41.6899  139.0351 C   0  0  0  0  0  0  0  0  0  0  0  0
  157.4295   42.4646  137.9274 N   0  0  0  0  0  0  0  0  0  0  0  0
  158.4103   41.8660  139.9319 N   0  0  0  0  0  0  0  0  0  0  0  0
  158.4622   41.1330  141.0646 C   0  0  0  0  0  0  0  0  0  0  0  0
  159.7490   46.3581  143.6343 P   0  0  2  0  0  0  0  0  0  0  0  0
  159.1402   46.2362  142.2586 O   0  0  0  0  0  0  0  0  0  0  0  0
  160.6727   47.5112  143.9790 O   0  0  0  0  0  0  0  0  0  0  0  0
  158.5407   46.3024  144.7050 O   0  0  0  0  0  0  0  0  0  0  0  0
  158.7616   46.7081  146.0552 C   0  0  0  0  0  0  0  0  0  0  0  0
  157.7023   46.1761  147.0255 C   0  0  1  0  0  0  0  0  0  0  0  0
  156.4813   46.8932  146.8319 O   0  0  0  0  0  0  0  0  0  0  0  0
  157.3726   44.6928  146.8738 C   0  0  1  0  0  0  0  0  0  0  0  0
  158.1282   43.8763  147.7675 O   0  0  0  0  0  0  0  0  0  0  0  0
  155.8917   44.6562  147.2020 C   0  0  1  0  0  0  0  0  0  0  0  0
  155.6860   44.5218  148.6110 O   0  0  0  0  0  0  0  0  0  0  0  0
  155.3557   46.0119  146.7919 C   0  0  2  0  0  0  0  0  0  0  0  0
  154.8511   45.9448  145.3980 N   0  0  0  0  0  0  0  0  0  0  0  0
  155.5177   46.3533  144.3001 C   0  0  0  0  0  0  0  0  0  0  0  0
  154.7959   46.1496  143.1631 N   0  0  0  0  0  0  0  0  0  0  0  0
  153.6326   45.5880  143.5284 C   0  0  0  0  0  0  0  0  0  0  0  0
  152.4036   45.1235  142.8359 C   0  0  0  0  0  0  0  0  0  0  0  0
  152.2712   45.1846  141.5946 O   0  0  0  0  0  0  0  0  0  0  0  0
  151.4320   44.6046  143.5885 N   0  0  0  0  0  0  0  0  0  0  0  0
  151.5283   44.5113  144.9238 C   0  0  0  0  0  0  0  0  0  0  0  0
  150.4852   43.9855  145.5830 N   0  0  0  0  0  0  0  0  0  0  0  0
  152.6102   44.9200  145.6272 N   0  0  0  0  0  0  0  0  0  0  0  0
  153.6761   45.4586  144.9988 C   0  0  0  0  0  0  0  0  0  0  0  0
  1  3  2  6  0  0  0
  1 32  1  0  0  0  0
  1  2  1  0  0  0  0
  1  4  1  0  0  0  0
  4  5  1  0  0  0  0
  6  5  1  1  0  0  0
  7  6  1  0  0  0  0
  8  6  1  0  0  0  0
  8 10  1  0  0  0  0
  8  9  1  6  0  0  0
 10 11  1  6  0  0  0
 12 13  1  1  0  0  0
 12  7  1  0  0  0  0
 12 10  1  0  0  0  0
 14 13  1  0  0  0  0
 15 16  1  0  0  0  0
 15 14  2  0  0  0  0
 16 23  2  0  0  0  0
 17 16  1  0  0  0  0
 17 19  1  0  0  0  0
 18 17  2  0  0  0  0
 19 20  2  0  0  0  0
 20 22  1  0  0  0  0
 20 21  1  0  0  0  0
 23 13  1  0  0  0  0
 23 22  1  0  0  0  0
 24 25  2  6  0  0  0
 24  9  1  0  0  0  0
 24 26  1  0  0  0  0
 27 28  1  0  0  0  0
 27 24  1  0  0  0  0
 29 30  1  6  0  0  0
 29 28  1  0  0  0  0
 31 32  1  1  0  0  0
 31 29  1  0  0  0  0
 33 34  1  1  0  0  0
 33 35  1  0  0  0  0
 33 31  1  0  0  0  0
 35 36  1  6  0  0  0
 35 30  1  0  0  0  0
 36 37  1  0  0  0  0
 38 37  2  0  0  0  0
 39 38  1  0  0  0  0
 40 41  2  0  0  0  0
 40 39  1  0  0  0  0
 42 40  1  0  0  0  0
 43 42  2  0  0  0  0
 43 45  1  0  0  0  0
 44 43  1  0  0  0  0
 45 46  1  0  0  0  0
 46 39  2  0  0  0  0
 46 36  1  0  0  0  0
M  END
>  <CHROM.1>
-4.25584836,15.54484212,157.31144658,43.71976351,144.07619416,-2.28961558
0.18001303,-2.11770065

>  <Name>
lig.pdb

>  <RI>
0

>  <Rbt.Current_Directory>
/home/itssahil/PROJECTS/Mol_Feturizer/New_Systems/rnas/4yb0

>  <Rbt.Executable>
rbdock ($Id: //depot/dev/client3/rdock/2013.1/src/exe/rbdock.cxx#4 $)

>  <Rbt.Library>
libRbt.so (2013.1, Build901 2013/11/27)

>  <Rbt.Parameter_File>
/export/apps/rDock/src/rDock_2013.1_src/data/scripts/dock_solv.prm

>  <Rbt.Receptor>
prm/pocket_docking_2.prm

>  <SCORE>
-50.3017

>  <SCORE.INTER>
-50.3692

>  <SCORE.INTER.CONST>
1

>  <SCORE.INTER.POLAR>
0

>  <SCORE.INTER.ROT>
2

>  <SCORE.INTER.SOLV>
30.5358

>  <SCORE.INTER.VDW>
-48.6914

>  <SCORE.INTER.norm>
-1.09498

>  <SCORE.INTRA>
0.0564162

>  <SCORE.INTRA.DIHEDRAL>
0.110343

>  <SCORE.INTRA.DIHEDRAL.0>
4.74153

>  <SCORE.INTRA.POLAR>
0

>  <SCORE.INTRA.POLAR.0>
0

>  <SCORE.INTRA.REPUL>
0

>  <SCORE.INTRA.REPUL.0>
0

>  <SCORE.INTRA.SOLV>
0.133825

>  <SCORE.INTRA.SOLV.lig_0>
-60.4375

>  <SCORE.INTRA.VDW>
-0.065668

>  <SCORE.INTRA.VDW.0>
-1.83689

>  <SCORE.INTRA.norm>
0.00122644

>  <SCORE.RESTR>
0.0110363

>  <SCORE.RESTR.CAVITY>
0.0110363

>  <SCORE.RESTR.norm>
0.000239921

>  <SCORE.SYSTEM>
0

>  <SCORE.SYSTEM.CONST>
0

>  <SCORE.SYSTEM.DIHEDRAL>
0

>  <SCORE.SYSTEM.SOLV>
0

>  <SCORE.SYSTEM.norm>
0

>  <SCORE.heavy>
46

>  <SCORE.norm>
-1.09352

>  <RMSD>
0.408

$$$$
lig.pdb
 OpenBabel11021811523D
libRbt.so/2013.1/901 2013/11/27
 46 52  0  0  0  0  0  0  0  0999 V2000
  158.4038   42.2088  147.4231 P   0  0  2  0  0  0  0  0  0  0  0  0
  159.3076   41.5252  148.4258 O   0  0  0  0  0  0  0  0  0  0  0  0
  157.0352   41.6095  147.2257 O   0  0  0  0  0  0  0  0  0  0  0  0
  159.1131   42.3315  145.9854 O   0  0  0  0  0  0  0  0  0  0  0  0
  160.4894   42.0238  145.8058 C   0  0  0  0  0  0  0  0  0  0  0  0
  160.9809   42.5914  144.4845 C   0  0  1  0  0  0  0  0  0  0  0  0
  161.0736   41.5220  143.5540 O   0  0  0  0  0  0  0  0  0  0  0  0
  160.0810   43.6389  143.8412 C   0  0  1  0  0  0  0  0  0  0  0  0
  160.6365   44.9311  144.0365 O   0  0  0  0  0  0  0  0  0  0  0  0
  160.1587   43.3123  142.3666 C   0  0  1  0  0  0  0  0  0  0  0  0
  161.2387   44.0343  141.7715 O   0  0  0  0  0  0  0  0  0  0  0  0
  160.5154   41.8561  142.2925 C   0  0  2  0  0  0  0  0  0  0  0  0
  159.2798   41.0616  142.0956 N   0  0  0  0  0  0  0  0  0  0  0  0
  158.7728   40.1726  142.9673 C   0  0  0  0  0  0  0  0  0  0  0  0
  157.6435   39.6104  142.4733 N   0  0  0  0  0  0  0  0  0  0  0  0
  157.4106   40.1411  141.2596 C   0  0  0  0  0  0  0  0  0  0  0  0
  156.3842   39.9876  140.2018 C   0  0  0  0  0  0  0  0  0  0  0  0
  155.4361   39.1799  140.3528 O   0  0  0  0  0  0  0  0  0  0  0  0
  156.5102   40.7344  139.0915 N   0  0  0  0  0  0  0  0  0  0  0  0
  157.5305   41.5987  138.9336 C   0  0  0  0  0  0  0  0  0  0  0  0
  157.6040   42.3278  137.7977 N   0  0  0  0  0  0  0  0  0  0  0  0
  158.4996   41.7873  139.8578 N   0  0  0  0  0  0  0  0  0  0  0  0
  158.4941   41.0993  141.0195 C   0  0  0  0  0  0  0  0  0  0  0  0
  159.8270   46.3052  143.7319 P   0  0  2  0  0  0  0  0  0  0  0  0
  159.2096   46.2223  142.3571 O   0  0  0  0  0  0  0  0  0  0  0  0
  160.7691   47.4371  144.0968 O   0  0  0  0  0  0  0  0  0  0  0  0
  158.6235   46.2435  144.8076 O   0  0  0  0  0  0  0  0  0  0  0  0
  158.8571   46.6163  146.1651 C   0  0  0  0  0  0  0  0  0  0  0  0
  157.7951   46.0785  147.1293 C   0  0  1  0  0  0  0  0  0  0  0  0
  156.5837   46.8172  146.9579 O   0  0  0  0  0  0  0  0  0  0  0  0
  157.4431   44.6038  146.9470 C   0  0  1  0  0  0  0  0  0  0  0  0
  158.1912   43.7572  147.8186 O   0  0  0  0  0  0  0  0  0  0  0  0
  155.9635   44.5814  147.2822 C   0  0  1  0  0  0  0  0  0  0  0  0
  155.7630   44.4192  148.6891 O   0  0  0  0  0  0  0  0  0  0  0  0
  155.4452   45.9534  146.9047 C   0  0  2  0  0  0  0  0  0  0  0  0
  154.9327   45.9241  145.5124 N   0  0  0  0  0  0  0  0  0  0  0  0
  155.5839   46.3826  144.4251 C   0  0  0  0  0  0  0  0  0  0  0  0
  154.8586   46.2039  143.2862 N   0  0  0  0  0  0  0  0  0  0  0  0
  153.7086   45.6078  143.6392 C   0  0  0  0  0  0  0  0  0  0  0  0
  152.4841   45.1436  142.9386 C   0  0  0  0  0  0  0  0  0  0  0  0
  152.3423   45.2444  141.7010 O   0  0  0  0  0  0  0  0  0  0  0  0
  151.5277   44.5806  143.6789 N   0  0  0  0  0  0  0  0  0  0  0  0
  151.6347   44.4437  145.0095 C   0  0  0  0  0  0  0  0  0  0  0  0
  150.6062   43.8757  145.6567 N   0  0  0  0  0  0  0  0  0  0  0  0
  152.7133   44.8490  145.7200 N   0  0  0  0  0  0  0  0  0  0  0  0
  153.7645   45.4293  145.1039 C   0  0  0  0  0  0  0  0  0  0  0  0
  1  3  2  6  0  0  0
  1 32  1  0  0  0  0
  1  2  1  0  0  0  0
  1  4  1  0  0  0  0
  4  5  1  0  0  0  0
  6  5  1  1  0  0  0
  7  6  1  0  0  0  0
  8  6  1  0  0  0  0
  8 10  1  0  0  0  0
  8  9  1  6  0  0  0
 10 11  1  6  0  0  0
 12 13  1  1  0  0  0
 12  7  1  0  0  0  0
 12 10  1  0  0  0  0
 14 13  1  0  0  0  0
 15 16  1  0  0  0  0
 15 14  2  0  0  0  0
 16 23  2  0  0  0  0
 17 16  1  0  0  0  0
 17 19  1  0  0  0  0
 18 17  2  0  0  0  0
 19 20  2  0  0  0  0
 20 22  1  0  0  0  0
 20 21  1  0  0  0  0
 23 13  1  0  0  0  0
 23 22  1  0  0  0  0
 24 25  2  6  0  0  0
 24  9  1  0  0  0  0
 24 26  1  0  0  0  0
 27 28  1  0  0  0  0
 27 24  1  0  0  0  0
 29 30  1  6  0  0  0
 29 28  1  0  0  0  0
 31 32  1  1  0  0  0
 31 29  1  0  0  0  0
 33 34  1  1  0  0  0
 33 35  1  0  0  0  0
 33 31  1  0  0  0  0
 35 36  1  6  0  0  0
 35 30  1  0  0  0  0
 36 37  1  0  0  0  0
 38 37  2  0  0  0  0
 39 38  1  0  0  0  0
 40 41  2  0  0  0  0
 40 39  1  0  0  0  0
 42 40  1  0  0  0  0
 43 42  2  0  0  0  0
 43 45  1  0  0  0  0
 44 43  1  0  0  0  0
 45 46  1  0  0  0  0
 46 39  2  0  0  0  0
 46 36  1  0  0  0  0
M  END
>  <CHROM.1>
-0.00444714,13.48876397,157.37067223,43.66652860,144.11726294,-2.20817902
0.17681534,-2.10548674

>  <Name>
lig.pdb

>  <RI>
0

>  <Rbt.Current_Directory>
/home/itssahil/PROJECTS/Mol_Feturizer/New_Systems/rnas/4yb0

>  <Rbt.Executable>
rbdock ($Id: //depot/dev/client3/rdock/2013.1/src/exe/rbdock.cxx#4 $)

>  <Rbt.Library>
libRbt.so (2013.1, Build901 2013/11/27)

>  <Rbt.Parameter_File>
/export/apps/rDock/src/rDock_2013.1_src/data/scripts/dock_solv.prm

>  <Rbt.Receptor>
prm/pocket_docking_6.prm

>  <SCORE>
-50.5925

>  <SCORE.INTER>
-50.6047

>  <SCORE.INTER.CONST>
1

>  <SCORE.INTER.POLAR>
0

>  <SCORE.INTER.ROT>
2

>  <SCORE.INTER.SOLV>
30.3371

>  <SCORE.INTER.VDW>
-48.7822

>  <SCORE.INTER.norm>
-1.1001

>  <SCORE.INTRA>
0.012269

>  <SCORE.INTRA.DIHEDRAL>
0.0954125

>  <SCORE.INTRA.DIHEDRAL.0>
4.74153

>  <SCORE.INTRA.POLAR>
0

>  <SCORE.INTRA.POLAR.0>
0

>  <SCORE.INTRA.REPUL>
0

>  <SCORE.INTRA.REPUL.0>
0

>  <SCORE.INTRA.SOLV>
0.11345

>  <SCORE.INTRA.SOLV.lig_0>
-60.4375

>  <SCORE.INTRA.VDW>
-0.0921625

>  <SCORE.INTRA.VDW.0>
-1.83689

>  <SCORE.INTRA.norm>
0.000266716

>  <SCORE.RESTR>
0

>  <SCORE.RESTR.CAVITY>
0

>  <SCORE.RESTR.norm>
0

>  <SCORE.SYSTEM>
0

>  <SCORE.SYSTEM.CONST>
0

>  <SCORE.SYSTEM.DIHEDRAL>
0

>  <SCORE.SYSTEM.SOLV>
0

>  <SCORE.SYSTEM.norm>
0

>  <SCORE.heavy>
46

>  <SCORE.norm>
-1.09984

>  <RMSD>
0.408

$$$$
lig.pdb
 OpenBabel11021811523D
libRbt.so/2013.1/901 2013/11/27
 46 52  0  0  0  0  0  0  0  0999 V2000
  158.3681   42.3221  147.4019 P   0  0  2  0  0  0  0  0  0  0  0  0
  159.2772   41.6751  148.4240 O   0  0  0  0  0  0  0  0  0  0  0  0
  157.0098   41.6978  147.2118 O   0  0  0  0  0  0  0  0  0  0  0  0
  159.0827   42.4233  145.9651 O   0  0  0  0  0  0  0  0  0  0  0  0
  160.4643   42.1326  145.7989 C   0  0  0  0  0  0  0  0  0  0  0  0
  160.9538   42.6779  144.4674 C   0  0  1  0  0  0  0  0  0  0  0  0
  161.0673   41.5894  143.5618 O   0  0  0  0  0  0  0  0  0  0  0  0
  160.0414   43.6968  143.7965 C   0  0  1  0  0  0  0  0  0  0  0  0
  160.5762   45.0014  143.9652 O   0  0  0  0  0  0  0  0  0  0  0  0
  160.1313   43.3384  142.3301 C   0  0  1  0  0  0  0  0  0  0  0  0
  161.2033   44.0632  141.7239 O   0  0  0  0  0  0  0  0  0  0  0  0
  160.5104   41.8865  142.2905 C   0  0  2  0  0  0  0  0  0  0  0  0
  159.2879   41.0690  142.1058 N   0  0  0  0  0  0  0  0  0  0  0  0
  158.8276   40.1428  142.9647 C   0  0  0  0  0  0  0  0  0  0  0  0
  157.6973   39.5689  142.4871 N   0  0  0  0  0  0  0  0  0  0  0  0
  157.4161   40.1295  141.2973 C   0  0  0  0  0  0  0  0  0  0  0  0
  156.3624   39.9828  140.2657 C   0  0  0  0  0  0  0  0  0  0  0  0
  155.4380   39.1488  140.4198 O   0  0  0  0  0  0  0  0  0  0  0  0
  156.4380   40.7649  139.1752 N   0  0  0  0  0  0  0  0  0  0  0  0
  157.4332   41.6575  139.0139 C   0  0  0  0  0  0  0  0  0  0  0  0
  157.4560   42.4213  137.8988 N   0  0  0  0  0  0  0  0  0  0  0  0
  158.4249   41.8417  139.9146 N   0  0  0  0  0  0  0  0  0  0  0  0
  158.4698   41.1197  141.0547 C   0  0  0  0  0  0  0  0  0  0  0  0
  159.7476   46.3558  143.6260 P   0  0  2  0  0  0  0  0  0  0  0  0
  159.1383   46.2326  142.2506 O   0  0  0  0  0  0  0  0  0  0  0  0
  160.6707   47.5098  143.9696 O   0  0  0  0  0  0  0  0  0  0  0  0
  158.5398   46.3000  144.6972 O   0  0  0  0  0  0  0  0  0  0  0  0
  158.7610   46.7067  146.0470 C   0  0  0  0  0  0  0  0  0  0  0  0
  157.7025   46.1746  147.0182 C   0  0  1  0  0  0  0  0  0  0  0  0
  156.4808   46.8907  146.8245 O   0  0  0  0  0  0  0  0  0  0  0  0
  157.3737   44.6909  146.8675 C   0  0  1  0  0  0  0  0  0  0  0  0
  158.1302   43.8756  147.7615 O   0  0  0  0  0  0  0  0  0  0  0  0
  155.8930   44.6536  147.1963 C   0  0  1  0  0  0  0  0  0  0  0  0
  155.6879   44.5199  148.6055 O   0  0  0  0  0  0  0  0  0  0  0  0
  155.3558   46.0086  146.7856 C   0  0  2  0  0  0  0  0  0  0  0  0
  154.8508   45.9403  145.3919 N   0  0  0  0  0  0  0  0  0  0  0  0
  155.5175   46.3466  144.2933 C   0  0  0  0  0  0  0  0  0  0  0  0
  154.7951   46.1422  143.1568 N   0  0  0  0  0  0  0  0  0  0  0  0
  153.6312   45.5824  143.5232 C   0  0  0  0  0  0  0  0  0  0  0  0
  152.4014   45.1185  142.8318 C   0  0  0  0  0  0  0  0  0  0  0  0
  152.2687   45.1781  141.5904 O   0  0  0  0  0  0  0  0  0  0  0  0
  151.4295   44.6017  143.5853 N   0  0  0  0  0  0  0  0  0  0  0  0
  151.5261   44.5101  144.9207 C   0  0  0  0  0  0  0  0  0  0  0  0
  150.4825   43.9864  145.5810 N   0  0  0  0  0  0  0  0  0  0  0  0
  152.6087   44.9184  145.6232 N   0  0  0  0  0  0  0  0  0  0  0  0
  153.6751   45.4550  144.9937 C   0  0  0  0  0  0  0  0  0  0  0  0
  1  3  2  6  0  0  0
  1 32  1  0  0  0  0
  1  2  1  0  0  0  0
  1  4  1  0  0  0  0
  4  5  1  0  0  0  0
  6  5  1  1  0  0  0
  7  6  1  0  0  0  0
  8  6  1  0  0  0  0
  8 10  1  0  0  0  0
  8  9  1  6  0  0  0
 10 11  1  6  0  0  0
 12 13  1  1  0  0  0
 12  7  1  0  0  0  0
 12 10  1  0  0  0  0
 14 13  1  0  0  0  0
 15 16  1  0  0  0  0
 15 14  2  0  0  0  0
 16 23  2  0  0  0  0
 17 16  1  0  0  0  0
 17 19  1  0  0  0  0
 18 17  2  0  0  0  0
 19 20  2  0  0  0  0
 20 22  1  0  0  0  0
 20 21  1  0  0  0  0
 23 13  1  0  0  0  0
 23 22  1  0  0  0  0
 24 25  2  6  0  0  0
 24  9  1  0  0  0  0
 24 26  1  0  0  0  0
 27 28  1  0  0  0  0
 27 24  1  0  0  0  0
 29 30  1  6  0  0  0
 29 28  1  0  0  0  0
 31 32  1  1  0  0  0
 31 29  1  0  0  0  0
 33 34  1  1  0  0  0
 33 35  1  0  0  0  0
 33 31  1  0  0  0  0
 35 36  1  6  0  0  0
 35 30  1  0  0  0  0
 36 37  1  0  0  0  0
 38 37  2  0  0  0  0
 39 38  1  0  0  0  0
 40 41  2  0  0  0  0
 40 39  1  0  0  0  0
 42 40  1  0  0  0  0
 43 42  2  0  0  0  0
 43 45  1  0  0  0  0
 44 43  1  0  0  0  0
 45 46  1  0  0  0  0
 46 39  2  0  0  0  0
 46 36  1  0  0  0  0
M  END
>  <CHROM.1>
-3.62244515,15.65909947,157.31369694,43.71419256,144.06904100,-2.28285898
0.17912885,-2.11904536

>  <Name>
lig.pdb

>  <RI>
0

>  <Rbt.Current_Directory>
/home/itssahil/PROJECTS/Mol_Feturizer/New_Systems/rnas/4yb0

>  <Rbt.Executable>
rbdock ($Id: //depot/dev/client3/rdock/2013.1/src/exe/rbdock.cxx#4 $)

>  <Rbt.Library>
libRbt.so (2013.1, Build901 2013/11/27)

>  <Rbt.Parameter_File>
/export/apps/rDock/src/rDock_2013.1_src/data/scripts/dock_solv.prm

>  <Rbt.Receptor>
prm/pocket_docking_2.prm

>  <SCORE>
-50.323

>  <SCORE.INTER>
-50.3791

>  <SCORE.INTER.CONST>
1

>  <SCORE.INTER.POLAR>
0

>  <SCORE.INTER.ROT>
2

>  <SCORE.INTER.SOLV>
30.5947

>  <SCORE.INTER.VDW>
-48.7176

>  <SCORE.INTER.norm>
-1.0952

>  <SCORE.INTRA>
0.0493339

>  <SCORE.INTRA.DIHEDRAL>
0.109104

>  <SCORE.INTRA.DIHEDRAL.0>
4.74153

>  <SCORE.INTRA.POLAR>
0

>  <SCORE.INTRA.POLAR.0>
0

>  <SCORE.INTRA.REPUL>
0

>  <SCORE.INTRA.REPUL.0>
0

>  <SCORE.INTRA.SOLV>
0.132087

>  <SCORE.INTRA.SOLV.lig_0>
-60.4375

>  <SCORE.INTRA.VDW>
-0.0712616

>  <SCORE.INTRA.VDW.0>
-1.83689

>  <SCORE.INTRA.norm>
0.00107248

>  <SCORE.RESTR>
0.00677946

>  <SCORE.RESTR.CAVITY>
0.00677946

>  <SCORE.RESTR.norm>
0.00014738

>  <SCORE.SYSTEM>
0

>  <SCORE.SYSTEM.CONST>
0

>  <SCORE.SYSTEM.DIHEDRAL>
0

>  <SCORE.SYSTEM.SOLV>
0

>  <SCORE.SYSTEM.norm>
0

>  <SCORE.heavy>
46

>  <SCORE.norm>
-1.09398

>  <RMSD>
0.412

$$$$
lig.pdb
 OpenBabel11021811523D
libRbt.so/2013.1/901 2013/11/27
 46 52  0  0  0  0  0  0  0  0999 V2000
  158.3836   42.2297  147.4002 P   0  0  2  0  0  0  0  0  0  0  0  0
  159.2930   41.5594  148.4068 O   0  0  0  0  0  0  0  0  0  0  0  0
  157.0238   41.6121  147.1990 O   0  0  0  0  0  0  0  0  0  0  0  0
  159.0961   42.3600  145.9648 O   0  0  0  0  0  0  0  0  0  0  0  0
  160.4770   42.0703  145.7902 C   0  0  0  0  0  0  0  0  0  0  0  0
  160.9654   42.6427  144.4698 C   0  0  1  0  0  0  0  0  0  0  0  0
  161.0754   41.5735  143.5411 O   0  0  0  0  0  0  0  0  0  0  0  0
  160.0539   43.6773  143.8221 C   0  0  1  0  0  0  0  0  0  0  0  0
  160.5915   44.9771  144.0176 O   0  0  0  0  0  0  0  0  0  0  0  0
  160.1408   43.3500  142.3482 C   0  0  1  0  0  0  0  0  0  0  0  0
  161.2132   44.0855  141.7558 O   0  0  0  0  0  0  0  0  0  0  0  0
  160.5171   41.8985  142.2773 C   0  0  2  0  0  0  0  0  0  0  0  0
  159.2928   41.0875  142.0772 N   0  0  0  0  0  0  0  0  0  0  0  0
  158.8009   40.1847  142.9435 C   0  0  0  0  0  0  0  0  0  0  0  0
  157.6789   39.6097  142.4479 N   0  0  0  0  0  0  0  0  0  0  0  0
  157.4354   40.1458  141.2386 C   0  0  0  0  0  0  0  0  0  0  0  0
  156.4089   39.9849  140.1820 C   0  0  0  0  0  0  0  0  0  0  0  0
  155.4731   39.1624  140.3291 O   0  0  0  0  0  0  0  0  0  0  0  0
  156.5214   40.7416  139.0769 N   0  0  0  0  0  0  0  0  0  0  0  0
  157.5285   41.6219  138.9232 C   0  0  0  0  0  0  0  0  0  0  0  0
  157.5887   42.3603  137.7924 N   0  0  0  0  0  0  0  0  0  0  0  0
  158.4969   41.8179  139.8465 N   0  0  0  0  0  0  0  0  0  0  0  0
  158.5042   41.1214  141.0032 C   0  0  0  0  0  0  0  0  0  0  0  0
  159.7649   46.3399  143.7084 P   0  0  2  0  0  0  0  0  0  0  0  0
  159.1532   46.2471  142.3317 O   0  0  0  0  0  0  0  0  0  0  0  0
  160.6907   47.4847  144.0749 O   0  0  0  0  0  0  0  0  0  0  0  0
  158.5587   46.2637  144.7801 O   0  0  0  0  0  0  0  0  0  0  0  0
  158.7827   46.6412  146.1379 C   0  0  0  0  0  0  0  0  0  0  0  0
  157.7247   46.0906  147.0993 C   0  0  1  0  0  0  0  0  0  0  0  0
  156.5041   46.8130  146.9228 O   0  0  0  0  0  0  0  0  0  0  0  0
  157.3929   44.6111  146.9177 C   0  0  1  0  0  0  0  0  0  0  0  0
  158.1493   43.7756  147.7930 O   0  0  0  0  0  0  0  0  0  0  0  0
  155.9126   44.5696  147.2480 C   0  0  1  0  0  0  0  0  0  0  0  0
  155.7095   44.4065  148.6544 O   0  0  0  0  0  0  0  0  0  0  0  0
  155.3774   45.9341  146.8670 C   0  0  2  0  0  0  0  0  0  0  0  0
  154.8700   45.8962  145.4730 N   0  0  0  0  0  0  0  0  0  0  0  0
  155.5346   46.3273  144.3825 C   0  0  0  0  0  0  0  0  0  0  0  0
  154.8104   46.1476  143.2430 N   0  0  0  0  0  0  0  0  0  0  0  0
  153.6476   45.5789  143.5989 C   0  0  0  0  0  0  0  0  0  0  0  0
  152.4170   45.1295  142.8993 C   0  0  0  0  0  0  0  0  0  0  0  0
  152.2822   45.2164  141.6598 O   0  0  0  0  0  0  0  0  0  0  0  0
  151.4467   44.5954  143.6429 N   0  0  0  0  0  0  0  0  0  0  0  0
  151.5456   44.4743  144.9757 C   0  0  0  0  0  0  0  0  0  0  0  0
  150.5036   43.9353  145.6260 N   0  0  0  0  0  0  0  0  0  0  0  0
  152.6291   44.8678  145.6853 N   0  0  0  0  0  0  0  0  0  0  0  0
  153.6940   45.4190  145.0661 C   0  0  0  0  0  0  0  0  0  0  0  0
  1  3  2  6  0  0  0
  1 32  1  0  0  0  0
  1  2  1  0  0  0  0
  1  4  1  0  0  0  0
  4  5  1  0  0  0  0
  6  5  1  1  0  0  0
  7  6  1  0  0  0  0
  8  6  1  0  0  0  0
  8 10  1  0  0  0  0
  8  9  1  6  0  0  0
 10 11  1  1  0  0  0
 12 13  1  1  0  0  0
 12  7  1  0  0  0  0
 12 10  1  0  0  0  0
 14 13  1  0  0  0  0
 15 16  1  0  0  0  0
 15 14  2  0  0  0  0
 16 23  2  0  0  0  0
 17 16  1  0  0  0  0
 17 19  1  0  0  0  0
 18 17  2  0  0  0  0
 19 20  2  0  0  0  0
 20 22  1  0  0  0  0
 20 21  1  0  0  0  0
 23 13  1  0  0  0  0
 23 22  1  0  0  0  0
 24 25  2  6  0  0  0
 24  9  1  0  0  0  0
 24 26  1  0  0  0  0
 27 28  1  0  0  0  0
 27 24  1  0  0  0  0
 29 30  1  6  0  0  0
 29 28  1  0  0  0  0
 31 32  1  1  0  0  0
 31 29  1  0  0  0  0
 33 34  1  1  0  0  0
 33 35  1  0  0  0  0
 33 31  1  0  0  0  0
 35 36  1  6  0  0  0
 35 30  1  0  0  0  0
 36 37  1  0  0  0  0
 38 37  2  0  0  0  0
 39 38  1  0  0  0  0
 40 41  2  0  0  0  0
 40 39  1  0  0  0  0
 42 40  1  0  0  0  0
 43 42  2  0  0  0  0
 43 45  1  0  0  0  0
 44 43  1  0  0  0  0
 45 46  1  0  0  0  0
 46 39  2  0  0  0  0
 46 36  1  0  0  0  0
M  END
>  <CHROM.1>
-0.59999096,15.49858644,157.33605488,43.68148169,144.09180408,-2.24485973
0.17635100,-2.10268650

>  <Name>
lig.pdb

>  <RI>
0

>  <Rbt.Current_Directory>
/home/itssahil/PROJECTS/Mol_Feturizer/New_Systems/rnas/4yb0

>  <Rbt.Executable>
rbdock ($Id: //depot/dev/client3/rdock/2013.1/src/exe/rbdock.cxx#4 $)

>  <Rbt.Library>
libRbt.so (2013.1, Build901 2013/11/27)

>  <Rbt.Parameter_File>
/export/apps/rDock/src/rDock_2013.1_src/data/scripts/dock_solv.prm

>  <Rbt.Receptor>
prm/pocket_docking_8.prm

>  <SCORE>
-50.6578

>  <SCORE.INTER>
-50.6742

>  <SCORE.INTER.CONST>
1

>  <SCORE.INTER.POLAR>
0

>  <SCORE.INTER.ROT>
2

>  <SCORE.INTER.SOLV>
30.6713

>  <SCORE.INTER.VDW>
-48.9399

>  <SCORE.INTER.norm>
-1.10161

>  <SCORE.INTRA>
0.0164055

>  <SCORE.INTRA.DIHEDRAL>
0.101538

>  <SCORE.INTRA.DIHEDRAL.0>
4.74153

>  <SCORE.INTRA.POLAR>
0

>  <SCORE.INTRA.POLAR.0>
0

>  <SCORE.INTRA.REPUL>
0

>  <SCORE.INTRA.REPUL.0>
0

>  <SCORE.INTRA.SOLV>
0.121453

>  <SCORE.INTRA.SOLV.lig_0>
-60.4375

>  <SCORE.INTRA.VDW>
-0.0950903

>  <SCORE.INTRA.VDW.0>
-1.83689

>  <SCORE.INTRA.norm>
0.000356642

>  <SCORE.RESTR>
0

>  <SCORE.RESTR.CAVITY>
0

>  <SCORE.RESTR.norm>
0

>  <SCORE.SYSTEM>
0

>  <SCORE.SYSTEM.CONST>
0

>  <SCORE.SYSTEM.DIHEDRAL>
0

>  <SCORE.SYSTEM.SOLV>
0

>  <SCORE.SYSTEM.norm>
0

>  <SCORE.heavy>
46

>  <SCORE.norm>
-1.10126

>  <RMSD>
0.417

$$$$
lig.pdb
 OpenBabel11021811523D
libRbt.so/2013.1/901 2013/11/27
 46 52  0  0  0  0  0  0  0  0999 V2000
  158.4094   42.2353  147.3837 P   0  0  2  0  0  0  0  0  0  0  0  0
  159.3317   41.5730  148.3839 O   0  0  0  0  0  0  0  0  0  0  0  0
  157.0538   41.6055  147.1918 O   0  0  0  0  0  0  0  0  0  0  0  0
  159.1108   42.3723  145.9435 O   0  0  0  0  0  0  0  0  0  0  0  0
  160.4929   42.0951  145.7594 C   0  0  0  0  0  0  0  0  0  0  0  0
  160.9671   42.6722  144.4358 C   0  0  1  0  0  0  0  0  0  0  0  0
  161.0804   41.6042  143.5060 O   0  0  0  0  0  0  0  0  0  0  0  0
  160.0418   43.6987  143.7946 C   0  0  1  0  0  0  0  0  0  0  0  0
  160.5690   45.0032  143.9867 O   0  0  0  0  0  0  0  0  0  0  0  0
  160.1216   43.3724  142.3201 C   0  0  1  0  0  0  0  0  0  0  0  0
  161.1832   44.1177  141.7205 O   0  0  0  0  0  0  0  0  0  0  0  0
  160.5104   41.9244  142.2462 C   0  0  2  0  0  0  0  0  0  0  0  0
  159.2921   41.1024  142.0543 N   0  0  0  0  0  0  0  0  0  0  0  0
  158.8094   40.2014  142.9277 C   0  0  0  0  0  0  0  0  0  0  0  0
  157.6909   39.6143  142.4385 N   0  0  0  0  0  0  0  0  0  0  0  0
  157.4403   40.1405  141.2264 C   0  0  0  0  0  0  0  0  0  0  0  0
  156.4128   39.9645  140.1732 C   0  0  0  0  0  0  0  0  0  0  0  0
  155.4839   39.1356  140.3279 O   0  0  0  0  0  0  0  0  0  0  0  0
  156.5166   40.7148  139.0629 N   0  0  0  0  0  0  0  0  0  0  0  0
  157.5164   41.6021  138.9010 C   0  0  0  0  0  0  0  0  0  0  0  0
  157.5681   42.3334  137.7653 N   0  0  0  0  0  0  0  0  0  0  0  0
  158.4854   41.8118  139.8208 N   0  0  0  0  0  0  0  0  0  0  0  0
  158.5008   41.1230  140.9820 C   0  0  0  0  0  0  0  0  0  0  0  0
  159.7280   46.3585  143.6836 P   0  0  2  0  0  0  0  0  0  0  0  0
  159.1078   46.2605  142.3111 O   0  0  0  0  0  0  0  0  0  0  0  0
  160.6459   47.5115  144.0441 O   0  0  0  0  0  0  0  0  0  0  0  0
  158.5299   46.2712  144.7636 O   0  0  0  0  0  0  0  0  0  0  0  0
  158.7599   46.6505  146.1199 C   0  0  0  0  0  0  0  0  0  0  0  0
  157.7136   46.0902  147.0884 C   0  0  1  0  0  0  0  0  0  0  0  0
  156.4853   46.8015  146.9205 O   0  0  0  0  0  0  0  0  0  0  0  0
  157.3939   44.6078  146.9087 C   0  0  1  0  0  0  0  0  0  0  0  0
  158.1637   43.7790  147.7785 O   0  0  0  0  0  0  0  0  0  0  0  0
  155.9163   44.5528  147.2492 C   0  0  1  0  0  0  0  0  0  0  0  0
  155.7244   44.3876  148.6569 O   0  0  0  0  0  0  0  0  0  0  0  0
  155.3662   45.9125  146.8722 C   0  0  2  0  0  0  0  0  0  0  0  0
  154.8496   45.8703  145.4817 N   0  0  0  0  0  0  0  0  0  0  0  0
  155.4995   46.3147  144.3878 C   0  0  0  0  0  0  0  0  0  0  0  0
  154.7702   46.1266  143.2529 N   0  0  0  0  0  0  0  0  0  0  0  0
  153.6191   45.5387  143.6154 C   0  0  0  0  0  0  0  0  0  0  0  0
  152.3908   45.0718  142.9233 C   0  0  0  0  0  0  0  0  0  0  0  0
  152.2458   45.1599  141.6850 O   0  0  0  0  0  0  0  0  0  0  0  0
  151.4343   44.5204  143.6722 N   0  0  0  0  0  0  0  0  0  0  0  0
  151.5446   44.3973  145.0039 C   0  0  0  0  0  0  0  0  0  0  0  0
  150.5159   43.8402  145.6600 N   0  0  0  0  0  0  0  0  0  0  0  0
  152.6268   44.8060  145.7070 N   0  0  0  0  0  0  0  0  0  0  0  0
  153.6784   45.3756  145.0818 C   0  0  0  0  0  0  0  0  0  0  0  0
  1  3  2  6  0  0  0
  1 32  1  0  0  0  0
  1  2  1  0  0  0  0
  1  4  1  0  0  0  0
  4  5  1  0  0  0  0
  6  5  1  1  0  0  0
  7  6  1  0  0  0  0
  8  6  1  0  0  0  0
  8 10  1  0  0  0  0
  8  9  1  6  0  0  0
 10 11  1  6  0  0  0
 12 13  1  1  0  0  0
 12  7  1  0  0  0  0
 12 10  1  0  0  0  0
 14 13  1  0  0  0  0
 15 16  1  0  0  0  0
 15 14  2  0  0  0  0
 16 23  2  0  0  0  0
 17 16  1  0  0  0  0
 17 19  1  0  0  0  0
 18 17  2  0  0  0  0
 19 20  2  0  0  0  0
 20 22  1  0  0  0  0
 20 21  1  0  0  0  0
 23 13  1  0  0  0  0
 23 22  1  0  0  0  0
 24 25  2  6  0  0  0
 24  9  1  0  0  0  0
 24 26  1  0  0  0  0
 27 28  1  0  0  0  0
 27 24  1  0  0  0  0
 29 30  1  6  0  0  0
 29 28  1  0  0  0  0
 31 32  1  1  0  0  0
 31 29  1  0  0  0  0
 33 34  1  1  0  0  0
 33 35  1  0  0  0  0
 33 31  1  0  0  0  0
 35 36  1  6  0  0  0
 35 30  1  0  0  0  0
 36 37  1  0  0  0  0
 38 37  2  0  0  0  0
 39 38  1  0  0  0  0
 40 41  2  0  0  0  0
 40 39  1  0  0  0  0
 42 40  1  0  0  0  0
 43 42  2  0  0  0  0
 43 45  1  0  0  0  0
 44 43  1  0  0  0  0
 45 46  1  0  0  0  0
 46 39  2  0  0  0  0
 46 36  1  0  0  0  0
M  END
>  <CHROM.1>
-0.12692260,15.08486695,157.32835826,43.67433513,144.08163740,-2.23457203
0.16280724,-2.10374524

>  <Name>
lig.pdb

>  <RI>
0

>  <Rbt.Current_Directory>
/home/itssahil/PROJECTS/Mol_Feturizer/New_Systems/rnas/4yb0

>  <Rbt.Executable>
rbdock ($Id: //depot/dev/client3/rdock/2013.1/src/exe/rbdock.cxx#4 $)

>  <Rbt.Library>
libRbt.so (2013.1, Build901 2013/11/27)

>  <Rbt.Parameter_File>
/export/apps/rDock/src/rDock_2013.1_src/data/scripts/dock_solv.prm

>  <Rbt.Receptor>
prm/pocket_docking_3.prm

>  <SCORE>
-50.648

>  <SCORE.INTER>
-50.6597

>  <SCORE.INTER.CONST>
1

>  <SCORE.INTER.POLAR>
0

>  <SCORE.INTER.ROT>
2

>  <SCORE.INTER.SOLV>
30.6582

>  <SCORE.INTER.VDW>
-48.9259

>  <SCORE.INTER.norm>
-1.1013

>  <SCORE.INTRA>
0.0117207

>  <SCORE.INTRA.DIHEDRAL>
0.0994739

>  <SCORE.INTRA.DIHEDRAL.0>
4.74153

>  <SCORE.INTRA.POLAR>
0

>  <SCORE.INTRA.POLAR.0>
0

>  <SCORE.INTRA.REPUL>
0

>  <SCORE.INTRA.REPUL.0>
0

>  <SCORE.INTRA.SOLV>
0.118655

>  <SCORE.INTRA.SOLV.lig_0>
-60.4375

>  <SCORE.INTRA.VDW>
-0.0973436

>  <SCORE.INTRA.VDW.0>
-1.83689

>  <SCORE.INTRA.norm>
0.000254797

>  <SCORE.RESTR>
0

>  <SCORE.RESTR.CAVITY>
0

>  <SCORE.RESTR.norm>
0

>  <SCORE.SYSTEM>
0

>  <SCORE.SYSTEM.CONST>
0

>  <SCORE.SYSTEM.DIHEDRAL>
0

>  <SCORE.SYSTEM.SOLV>
0

>  <SCORE.SYSTEM.norm>
0

>  <SCORE.heavy>
46

>  <SCORE.norm>
-1.10104

>  <RMSD>
0.419

$$$$
lig.pdb
 OpenBabel11021811523D
libRbt.so/2013.1/901 2013/11/27
 46 52  0  0  0  0  0  0  0  0999 V2000
  158.2852   42.1462  147.5574 P   0  0  2  0  0  0  0  0  0  0  0  0
  159.1485   41.4486  148.5859 O   0  0  0  0  0  0  0  0  0  0  0  0
  156.9026   41.5869  147.3416 O   0  0  0  0  0  0  0  0  0  0  0  0
  159.0248   42.2277  146.1321 O   0  0  0  0  0  0  0  0  0  0  0  0
  160.3939   41.8753  145.9828 C   0  0  0  0  0  0  0  0  0  0  0  0
  160.9275   42.4098  144.6639 C   0  0  1  0  0  0  0  0  0  0  0  0
  161.0043   41.3256  143.7492 O   0  0  0  0  0  0  0  0  0  0  0  0
  160.0728   43.4757  143.9901 C   0  0  1  0  0  0  0  0  0  0  0  0
  160.6644   44.7527  144.1794 O   0  0  0  0  0  0  0  0  0  0  0  0
  160.1678   43.1272  142.5216 C   0  0  1  0  0  0  0  0  0  0  0  0
  161.2807   43.8075  141.9381 O   0  0  0  0  0  0  0  0  0  0  0  0
  160.4804   41.6598  142.4731 C   0  0  2  0  0  0  0  0  0  0  0  0
  159.2246   40.9012  142.2628 N   0  0  0  0  0  0  0  0  0  0  0  0
  158.6975   40.0065  143.1166 C   0  0  0  0  0  0  0  0  0  0  0  0
  157.5532   39.4839  142.6140 N   0  0  0  0  0  0  0  0  0  0  0  0
  157.3306   40.0465  141.4129 C   0  0  0  0  0  0  0  0  0  0  0  0
  156.2980   39.9419  140.3551 C   0  0  0  0  0  0  0  0  0  0  0  0
  155.3302   39.1553  140.4916 O   0  0  0  0  0  0  0  0  0  0  0  0
  156.4400   40.7093  139.2609 N   0  0  0  0  0  0  0  0  0  0  0  0
  157.4815   41.5508  139.1186 C   0  0  0  0  0  0  0  0  0  0  0  0
  157.5705   42.3022  137.9985 N   0  0  0  0  0  0  0  0  0  0  0  0
  158.4574   41.6947  140.0437 N   0  0  0  0  0  0  0  0  0  0  0  0
  158.4374   40.9820  141.1902 C   0  0  0  0  0  0  0  0  0  0  0  0
  159.9038   46.1469  143.8418 P   0  0  2  0  0  0  0  0  0  0  0  0
  159.3099   46.0646  142.4566 O   0  0  0  0  0  0  0  0  0  0  0  0
  160.8737   47.2540  144.2100 O   0  0  0  0  0  0  0  0  0  0  0  0
  158.6791   46.1368  144.8950 O   0  0  0  0  0  0  0  0  0  0  0  0
  158.8987   46.5204  146.2518 C   0  0  0  0  0  0  0  0  0  0  0  0
  157.8027   46.0286  147.2024 C   0  0  1  0  0  0  0  0  0  0  0  0
  156.6182   46.8019  146.9984 O   0  0  0  0  0  0  0  0  0  0  0  0
  157.4085   44.5631  147.0324 C   0  0  1  0  0  0  0  0  0  0  0  0
  158.1136   43.7056  147.9289 O   0  0  0  0  0  0  0  0  0  0  0  0
  155.9229   44.5909  147.3395 C   0  0  1  0  0  0  0  0  0  0  0  0
  155.6912   44.4538  148.7443 O   0  0  0  0  0  0  0  0  0  0  0  0
  155.4546   45.9730  146.9346 C   0  0  2  0  0  0  0  0  0  0  0  0
  154.9676   45.9408  145.5332 N   0  0  0  0  0  0  0  0  0  0  0  0
  155.6355   46.4037  144.4580 C   0  0  0  0  0  0  0  0  0  0  0  0
  154.9320   46.2207  143.3061 N   0  0  0  0  0  0  0  0  0  0  0  0
  153.7796   45.6172  143.6381 C   0  0  0  0  0  0  0  0  0  0  0  0
  152.5709   45.1454  142.9155 C   0  0  0  0  0  0  0  0  0  0  0  0
  152.4509   45.2456  141.6755 O   0  0  0  0  0  0  0  0  0  0  0  0
  151.6048   44.5763  143.6383 N   0  0  0  0  0  0  0  0  0  0  0  0
  151.6887   44.4397  144.9706 C   0  0  0  0  0  0  0  0  0  0  0  0
  150.6523   43.8651  145.5990 N   0  0  0  0  0  0  0  0  0  0  0  0
  152.7516   44.8516  145.7005 N   0  0  0  0  0  0  0  0  0  0  0  0
  153.8101   45.4387  145.1036 C   0  0  0  0  0  0  0  0  0  0  0  0
  1  3  2  6  0  0  0
  1 32  1  0  0  0  0
  1  2  1  0  0  0  0
  1  4  1  0  0  0  0
  4  5  1  0  0  0  0
  6  5  1  1  0  0  0
  7  6  1  0  0  0  0
  8  6  1  0  0  0  0
  8 10  1  0  0  0  0
  8  9  1  6  0  0  0
 10 11  1  1  0  0  0
 12 13  1  1  0  0  0
 12  7  1  0  0  0  0
 12 10  1  0  0  0  0
 14 13  1  0  0  0  0
 15 16  1  0  0  0  0
 15 14  2  0  0  0  0
 16 23  2  0  0  0  0
 17 16  1  0  0  0  0
 17 19  1  0  0  0  0
 18 17  2  0  0  0  0
 19 20  2  0  0  0  0
 20 22  1  0  0  0  0
 20 21  1  0  0  0  0
 23 13  1  0  0  0  0
 23 22  1  0  0  0  0
 24 25  2  6  0  0  0
 24  9  1  0  0  0  0
 24 26  1  0  0  0  0
 27 28  1  0  0  0  0
 27 24  1  0  0  0  0
 29 30  1  6  0  0  0
 29 28  1  0  0  0  0
 31 32  1  1  0  0  0
 31 29  1  0  0  0  0
 33 34  1  1  0  0  0
 33 35  1  0  0  0  0
 33 31  1  0  0  0  0
 35 36  1  6  0  0  0
 35 30  1  0  0  0  0
 36 37  1  0  0  0  0
 38 37  2  0  0  0  0
 39 38  1  0  0  0  0
 40 41  2  0  0  0  0
 40 39  1  0  0  0  0
 42 40  1  0  0  0  0
 43 42  2  0  0  0  0
 43 45  1  0  0  0  0
 44 43  1  0  0  0  0
 45 46  1  0  0  0  0
 46 39  2  0  0  0  0
 46 36  1  0  0  0  0
M  END
>  <CHROM.1>
-2.37831401,11.22003766,157.35829114,43.58930924,144.21786904,-2.20678634
0.20611522,-2.11651377

>  <Name>
lig.pdb

>  <RI>
0

>  <Rbt.Current_Directory>
/home/itssahil/PROJECTS/Mol_Feturizer/New_Systems/rnas/4yb0

>  <Rbt.Executable>
rbdock ($Id: //depot/dev/client3/rdock/2013.1/src/exe/rbdock.cxx#4 $)

>  <Rbt.Library>
libRbt.so (2013.1, Build901 2013/11/27)

>  <Rbt.Parameter_File>
/export/apps/rDock/src/rDock_2013.1_src/data/scripts/dock_solv.prm

>  <Rbt.Receptor>
prm/pocket_docking_5.prm

>  <SCORE>
-50.639

>  <SCORE.INTER>
-50.6819

>  <SCORE.INTER.CONST>
1

>  <SCORE.INTER.POLAR>
0

>  <SCORE.INTER.ROT>
2

>  <SCORE.INTER.SOLV>
30.096

>  <SCORE.INTER.VDW>
-48.7532

>  <SCORE.INTER.norm>
-1.10178

>  <SCORE.INTRA>
0.0429156

>  <SCORE.INTRA.DIHEDRAL>
0.0952927

>  <SCORE.INTRA.DIHEDRAL.0>
4.74153

>  <SCORE.INTRA.POLAR>
0

>  <SCORE.INTRA.POLAR.0>
0

>  <SCORE.INTRA.REPUL>
0

>  <SCORE.INTRA.REPUL.0>
0

>  <SCORE.INTRA.SOLV>
0.118133

>  <SCORE.INTRA.SOLV.lig_0>
-60.4375

>  <SCORE.INTRA.VDW>
-0.0637972

>  <SCORE.INTRA.VDW.0>
-1.83689

>  <SCORE.INTRA.norm>
0.000932949

>  <SCORE.RESTR>
0

>  <SCORE.RESTR.CAVITY>
0

>  <SCORE.RESTR.norm>
0

>  <SCORE.SYSTEM>
0

>  <SCORE.SYSTEM.CONST>
0

>  <SCORE.SYSTEM.DIHEDRAL>
0

>  <SCORE.SYSTEM.SOLV>
0

>  <SCORE.SYSTEM.norm>
0

>  <SCORE.heavy>
46

>  <SCORE.norm>
-1.10085

>  <RMSD>
0.419

$$$$
lig.pdb
 OpenBabel11021811523D
libRbt.so/2013.1/901 2013/11/27
 46 52  0  0  0  0  0  0  0  0999 V2000
  159.7148   46.2442  143.5403 P   0  0  2  0  0  0  0  0  0  0  0  0
  160.3667   47.5710  143.8636 O   0  0  0  0  0  0  0  0  0  0  0  0
  159.2477   46.0468  142.1212 O   0  0  0  0  0  0  0  0  0  0  0  0
  158.4792   45.9449  144.5245 O   0  0  0  0  0  0  0  0  0  0  0  0
  158.2264   46.7509  145.6680 C   0  0  0  0  0  0  0  0  0  0  0  0
  157.2757   46.0320  146.6109 C   0  0  1  0  0  0  0  0  0  0  0  0
  155.9874   46.6120  146.4627 O   0  0  0  0  0  0  0  0  0  0  0  0
  157.1020   44.5393  146.3607 C   0  0  1  0  0  0  0  0  0  0  0  0
  157.8331   43.8039  147.3309 O   0  0  0  0  0  0  0  0  0  0  0  0
  155.6282   44.3094  146.6097 C   0  0  1  0  0  0  0  0  0  0  0  0
  155.4182   43.9910  147.9869 O   0  0  0  0  0  0  0  0  0  0  0  0
  154.9645   45.6330  146.3629 C   0  0  2  0  0  0  0  0  0  0  0  0
  154.4202   45.6551  144.9845 N   0  0  0  0  0  0  0  0  0  0  0  0
  155.0291   46.1866  143.9102 C   0  0  0  0  0  0  0  0  0  0  0  0
  154.2538   46.0530  142.8073 N   0  0  0  0  0  0  0  0  0  0  0  0
  153.1208   45.4246  143.1683 C   0  0  0  0  0  0  0  0  0  0  0  0
  151.8837   44.9714  142.4898 C   0  0  0  0  0  0  0  0  0  0  0  0
  151.7269   45.1706  141.2612 O   0  0  0  0  0  0  0  0  0  0  0  0
  150.9512   44.3511  143.2329 N   0  0  0  0  0  0  0  0  0  0  0  0
  151.1238   44.1411  144.5516 C   0  0  0  0  0  0  0  0  0  0  0  0
  150.1540   43.5074  145.2482 N   0  0  0  0  0  0  0  0  0  0  0  0
  152.2265   44.5286  145.2319 N   0  0  0  0  0  0  0  0  0  0  0  0
  153.2402   45.1640  144.6062 C   0  0  0  0  0  0  0  0  0  0  0  0
  158.1058   42.2072  147.2205 P   0  0  2  0  0  0  0  0  0  0  0  0
  156.8047   41.5014  146.9253 O   0  0  0  0  0  0  0  0  0  0  0  0
  158.9350   41.8378  148.4362 O   0  0  0  0  0  0  0  0  0  0  0  0
  159.0241   42.1037  145.8955 O   0  0  0  0  0  0  0  0  0  0  0  0
  160.4195   42.3937  145.9674 C   0  0  0  0  0  0  0  0  0  0  0  0
  161.0421   42.7028  144.6023 C   0  0  1  0  0  0  0  0  0  0  0  0
  161.1601   41.4922  143.8516 O   0  0  0  0  0  0  0  0  0  0  0  0
  160.2526   43.6835  143.7382 C   0  0  1  0  0  0  0  0  0  0  0  0
  160.7130   45.0261  143.8850 O   0  0  0  0  0  0  0  0  0  0  0  0
  160.5066   43.1568  142.3381 C   0  0  1  0  0  0  0  0  0  0  0  0
  161.7119   43.7063  141.7987 O   0  0  0  0  0  0  0  0  0  0  0  0
  160.7203   41.6665  142.5021 C   0  0  2  0  0  0  0  0  0  0  0  0
  159.4285   40.9579  142.3256 N   0  0  0  0  0  0  0  0  0  0  0  0
  158.9100   40.0460  143.1719 C   0  0  0  0  0  0  0  0  0  0  0  0
  157.7032   39.5833  142.7421 N   0  0  0  0  0  0  0  0  0  0  0  0
  157.4250   40.2144  141.5904 C   0  0  0  0  0  0  0  0  0  0  0  0
  156.3208   40.1934  140.5974 C   0  0  0  0  0  0  0  0  0  0  0  0
  155.3102   39.4710  140.7355 O   0  0  0  0  0  0  0  0  0  0  0  0
  156.4265   41.0028  139.5423 N   0  0  0  0  0  0  0  0  0  0  0  0
  157.4878   41.8017  139.3519 C   0  0  0  0  0  0  0  0  0  0  0  0
  157.4968   42.5644  138.2485 N   0  0  0  0  0  0  0  0  0  0  0  0
  158.5362   41.8707  140.2054 N   0  0  0  0  0  0  0  0  0  0  0  0
  158.5646   41.1144  141.3228 C   0  0  0  0  0  0  0  0  0  0  0  0
  1  3  2  6  0  0  0
  1 32  1  0  0  0  0
  1  2  1  0  0  0  0
  1  4  1  0  0  0  0
  4  5  1  0  0  0  0
  6  5  1  6  0  0  0
  7  6  1  0  0  0  0
  8  6  1  0  0  0  0
  8 10  1  0  0  0  0
  8  9  1  1  0  0  0
 10 11  1  1  0  0  0
 12 13  1  6  0  0  0
 12  7  1  0  0  0  0
 12 10  1  0  0  0  0
 14 13  1  0  0  0  0
 15 16  1  0  0  0  0
 15 14  2  0  0  0  0
 16 23  2  0  0  0  0
 17 16  1  0  0  0  0
 17 19  1  0  0  0  0
 18 17  2  0  0  0  0
 19 20  2  0  0  0  0
 20 22  1  0  0  0  0
 20 21  1  0  0  0  0
 23 13  1  0  0  0  0
 23 22  1  0  0  0  0
 24 25  2  6  0  0  0
 24  9  1  0  0  0  0
 24 26  1  0  0  0  0
 27 28  1  0  0  0  0
 27 24  1  0  0  0  0
 29 30  1  6  0  0  0
 29 28  1  0  0  0  0
 31 32  1  6  0  0  0
 31 29  1  0  0  0  0
 33 34  1  1  0  0  0
 33 35  1  0  0  0  0
 33 31  1  0  0  0  0
 35 36  1  1  0  0  0
 35 30  1  0  0  0  0
 36 37  1  0  0  0  0
 38 37  2  0  0  0  0
 39 38  1  0  0  0  0
 40 41  2  0  0  0  0
 40 39  1  0  0  0  0
 42 40  1  0  0  0  0
 43 42  2  0  0  0  0
 43 45  1  0  0  0  0
 44 43  1  0  0  0  0
 45 46  1  0  0  0  0
 46 39  2  0  0  0  0
 46 36  1  0  0  0  0
M  END
>  <CHROM.1>
18.72368480,-14.55652935,157.15854167,43.60175778,143.96238621,-0.31293906
-0.17056121,1.02907691

>  <Name>
lig.pdb

>  <RI>
0

>  <Rbt.Current_Directory>
/home/itssahil/PROJECTS/Mol_Feturizer/New_Systems/rnas/4yb0

>  <Rbt.Executable>
rbdock ($Id: //depot/dev/client3/rdock/2013.1/src/exe/rbdock.cxx#4 $)

>  <Rbt.Library>
libRbt.so (2013.1, Build901 2013/11/27)

>  <Rbt.Parameter_File>
/export/apps/rDock/src/rDock_2013.1_src/data/scripts/dock_solv.prm

>  <Rbt.Receptor>
prm/pocket_docking_7.prm

>  <SCORE>
-53.5533

>  <SCORE.INTER>
-53.4714

>  <SCORE.INTER.CONST>
1

>  <SCORE.INTER.POLAR>
0

>  <SCORE.INTER.ROT>
2

>  <SCORE.INTER.SOLV>
30.4946

>  <SCORE.INTER.VDW>
-50.7458

>  <SCORE.INTER.norm>
-1.16242

>  <SCORE.INTRA>
-0.0818946

>  <SCORE.INTRA.DIHEDRAL>
-0.0226699

>  <SCORE.INTRA.DIHEDRAL.0>
4.74153

>  <SCORE.INTRA.POLAR>
0

>  <SCORE.INTRA.POLAR.0>
0

>  <SCORE.INTRA.REPUL>
0

>  <SCORE.INTRA.REPUL.0>
0

>  <SCORE.INTRA.SOLV>
-0.00832304

>  <SCORE.INTRA.SOLV.lig_0>
-60.4375

>  <SCORE.INTRA.VDW>
-0.0663981

>  <SCORE.INTRA.VDW.0>
-1.83689

>  <SCORE.INTRA.norm>
-0.00178032

>  <SCORE.RESTR>
0

>  <SCORE.RESTR.CAVITY>
0

>  <SCORE.RESTR.norm>
0

>  <SCORE.SYSTEM>
0

>  <SCORE.SYSTEM.CONST>
0

>  <SCORE.SYSTEM.DIHEDRAL>
0

>  <SCORE.SYSTEM.SOLV>
0

>  <SCORE.SYSTEM.norm>
0

>  <SCORE.heavy>
46

>  <SCORE.norm>
-1.1642

>  <RMSD>
0.420

$$$$
lig.pdb
 OpenBabel11021811523D
libRbt.so/2013.1/901 2013/11/27
 46 52  0  0  0  0  0  0  0  0999 V2000
  158.4432   42.0994  147.4240 P   0  0  2  0  0  0  0  0  0  0  0  0
  159.3279   41.3653  148.4079 O   0  0  0  0  0  0  0  0  0  0  0  0
  157.0522   41.5543  147.2261 O   0  0  0  0  0  0  0  0  0  0  0  0
  159.1470   42.2218  145.9836 O   0  0  0  0  0  0  0  0  0  0  0  0
  160.5098   41.8672  145.7886 C   0  0  0  0  0  0  0  0  0  0  0  0
  161.0131   42.4400  144.4740 C   0  0  1  0  0  0  0  0  0  0  0  0
  161.0604   41.3848  143.5242 O   0  0  0  0  0  0  0  0  0  0  0  0
  160.1481   43.5311  143.8559 C   0  0  1  0  0  0  0  0  0  0  0  0
  160.7519   44.7984  144.0700 O   0  0  0  0  0  0  0  0  0  0  0  0
  160.2039   43.2284  142.3753 C   0  0  1  0  0  0  0  0  0  0  0  0
  161.3058   43.9210  141.7852 O   0  0  0  0  0  0  0  0  0  0  0  0
  160.5064   41.7617  142.2728 C   0  0  2  0  0  0  0  0  0  0  0  0
  159.2412   41.0166  142.0709 N   0  0  0  0  0  0  0  0  0  0  0  0
  158.7102   40.1275  142.9282 C   0  0  0  0  0  0  0  0  0  0  0  0
  157.5570   39.6173  142.4332 N   0  0  0  0  0  0  0  0  0  0  0  0
  157.3325   40.1824  141.2336 C   0  0  0  0  0  0  0  0  0  0  0  0
  156.2919   40.0890  140.1827 C   0  0  0  0  0  0  0  0  0  0  0  0
  155.3166   39.3128  140.3255 O   0  0  0  0  0  0  0  0  0  0  0  0
  156.4348   40.8550  139.0876 N   0  0  0  0  0  0  0  0  0  0  0  0
  157.4842   41.6853  138.9385 C   0  0  0  0  0  0  0  0  0  0  0  0
  157.5738   42.4359  137.8178 N   0  0  0  0  0  0  0  0  0  0  0  0
  158.4677   41.8186  139.8570 N   0  0  0  0  0  0  0  0  0  0  0  0
  158.4478   41.1060  141.0036 C   0  0  0  0  0  0  0  0  0  0  0  0
  159.9915   46.2064  143.7956 P   0  0  2  0  0  0  0  0  0  0  0  0
  159.3623   46.1709  142.4241 O   0  0  0  0  0  0  0  0  0  0  0  0
  160.9769   47.2964  144.1735 O   0  0  0  0  0  0  0  0  0  0  0  0
  158.7936   46.1696  144.8788 O   0  0  0  0  0  0  0  0  0  0  0  0
  159.0497   46.5092  146.2409 C   0  0  0  0  0  0  0  0  0  0  0  0
  157.9752   45.9934  147.2031 C   0  0  1  0  0  0  0  0  0  0  0  0
  156.7905   46.7790  147.0536 O   0  0  0  0  0  0  0  0  0  0  0  0
  157.5680   44.5361  146.9974 C   0  0  1  0  0  0  0  0  0  0  0  0
  158.2903   43.6472  147.8484 O   0  0  0  0  0  0  0  0  0  0  0  0
  156.0908   44.5619  147.3429 C   0  0  1  0  0  0  0  0  0  0  0  0
  155.8938   44.3819  148.7481 O   0  0  0  0  0  0  0  0  0  0  0  0
  155.6208   45.9585  146.9935 C   0  0  2  0  0  0  0  0  0  0  0  0
  155.0983   45.9729  145.6046 N   0  0  0  0  0  0  0  0  0  0  0  0
  155.6966   46.5536  144.5457 C   0  0  0  0  0  0  0  0  0  0  0  0
  154.9775   46.3851  143.4012 N   0  0  0  0  0  0  0  0  0  0  0  0
  153.8867   45.6709  143.7210 C   0  0  0  0  0  0  0  0  0  0  0  0
  152.6994   45.1478  142.9983 C   0  0  0  0  0  0  0  0  0  0  0  0
  152.5367   45.3138  141.7702 O   0  0  0  0  0  0  0  0  0  0  0  0
  151.8025   44.4589  143.7057 N   0  0  0  0  0  0  0  0  0  0  0  0
  151.9346   44.2481  145.0244 C   0  0  0  0  0  0  0  0  0  0  0  0
  150.9654   43.5537  145.6391 N   0  0  0  0  0  0  0  0  0  0  0  0
  152.9817   44.6993  145.7540 N   0  0  0  0  0  0  0  0  0  0  0  0
  153.9728   45.4058  145.1711 C   0  0  0  0  0  0  0  0  0  0  0  0
  1  3  2  6  0  0  0
  1 32  1  0  0  0  0
  1  2  1  0  0  0  0
  1  4  1  0  0  0  0
  4  5  1  0  0  0  0
  6  5  1  1  0  0  0
  7  6  1  0  0  0  0
  8  6  1  0  0  0  0
  8 10  1  0  0  0  0
  8  9  1  6  0  0  0
 10 11  1  6  0  0  0
 12 13  1  1  0  0  0
 12  7  1  0  0  0  0
 12 10  1  0  0  0  0
 14 13  1  0  0  0  0
 15 16  1  0  0  0  0
 15 14  2  0  0  0  0
 16 23  2  0  0  0  0
 17 16  1  0  0  0  0
 17 19  1  0  0  0  0
 18 17  2  0  0  0  0
 19 20  2  0  0  0  0
 20 22  1  0  0  0  0
 20 21  1  0  0  0  0
 23 13  1  0  0  0  0
 23 22  1  0  0  0  0
 24 25  2  6  0  0  0
 24  9  1  0  0  0  0
 24 26  1  0  0  0  0
 27 28  1  0  0  0  0
 27 24  1  0  0  0  0
 29 30  1  6  0  0  0
 29 28  1  0  0  0  0
 31 32  1  1  0  0  0
 31 29  1  0  0  0  0
 33 34  1  1  0  0  0
 33 35  1  0  0  0  0
 33 31  1  0  0  0  0
 35 36  1  6  0  0  0
 35 30  1  0  0  0  0
 36 37  1  0  0  0  0
 38 37  2  0  0  0  0
 39 38  1  0  0  0  0
 40 41  2  0  0  0  0
 40 39  1  0  0  0  0
 42 40  1  0  0  0  0
 43 42  2  0  0  0  0
 43 45  1  0  0  0  0
 44 43  1  0  0  0  0
 45 46  1  0  0  0  0
 46 39  2  0  0  0  0
 46 36  1  0  0  0  0
M  END
>  <CHROM.1>
-0.27041191,5.97461594,157.46000396,43.61850821,144.14551568,-2.08925147
0.17554373,-2.09659164

>  <Name>
lig.pdb

>  <RI>
0

>  <Rbt.Current_Directory>
/home/itssahil/PROJECTS/Mol_Feturizer/New_Systems/rnas/4yb0

>  <Rbt.Executable>
rbdock ($Id: //depot/dev/client3/rdock/2013.1/src/exe/rbdock.cxx#4 $)

>  <Rbt.Library>
libRbt.so (2013.1, Build901 2013/11/27)

>  <Rbt.Parameter_File>
/export/apps/rDock/src/rDock_2013.1_src/data/scripts/dock_solv.prm

>  <Rbt.Receptor>
prm/pocket_docking_3.prm

>  <SCORE>
-50.2432

>  <SCORE.INTER>
-50.3206

>  <SCORE.INTER.CONST>
1

>  <SCORE.INTER.POLAR>
0

>  <SCORE.INTER.ROT>
2

>  <SCORE.INTER.SOLV>
29.4449

>  <SCORE.INTER.VDW>
-48.2954

>  <SCORE.INTER.norm>
-1.09393

>  <SCORE.INTRA>
0.0773954

>  <SCORE.INTRA.DIHEDRAL>
0.0752504

>  <SCORE.INTRA.DIHEDRAL.0>
4.74153

>  <SCORE.INTRA.POLAR>
0

>  <SCORE.INTRA.POLAR.0>
0

>  <SCORE.INTRA.REPUL>
0

>  <SCORE.INTRA.REPUL.0>
0

>  <SCORE.INTRA.SOLV>
0.101466

>  <SCORE.INTRA.SOLV.lig_0>
-60.4375

>  <SCORE.INTRA.VDW>
-0.010963

>  <SCORE.INTRA.VDW.0>
-1.83689

>  <SCORE.INTRA.norm>
0.00168251

>  <SCORE.RESTR>
0

>  <SCORE.RESTR.CAVITY>
0

>  <SCORE.RESTR.norm>
0

>  <SCORE.SYSTEM>
0

>  <SCORE.SYSTEM.CONST>
0

>  <SCORE.SYSTEM.DIHEDRAL>
0

>  <SCORE.SYSTEM.SOLV>
0

>  <SCORE.SYSTEM.norm>
0

>  <SCORE.heavy>
46

>  <SCORE.norm>
-1.09224

>  <RMSD>
0.424

$$$$
lig.pdb
 OpenBabel11021811523D
libRbt.so/2013.1/901 2013/11/27
 46 52  0  0  0  0  0  0  0  0999 V2000
  159.7178   46.2354  143.4624 P   0  0  2  0  0  0  0  0  0  0  0  0
  160.3747   47.5621  143.7754 O   0  0  0  0  0  0  0  0  0  0  0  0
  159.2273   46.0385  142.0512 O   0  0  0  0  0  0  0  0  0  0  0  0
  158.4988   45.9354  144.4669 O   0  0  0  0  0  0  0  0  0  0  0  0
  158.2648   46.7408  145.6148 C   0  0  0  0  0  0  0  0  0  0  0  0
  157.3301   46.0212  146.5730 C   0  0  1  0  0  0  0  0  0  0  0  0
  156.0394   46.6010  146.4465 O   0  0  0  0  0  0  0  0  0  0  0  0
  157.1526   44.5286  146.3251 C   0  0  1  0  0  0  0  0  0  0  0  0
  157.8999   43.7929  147.2826 O   0  0  0  0  0  0  0  0  0  0  0  0
  155.6832   44.2983  146.5984 C   0  0  1  0  0  0  0  0  0  0  0  0
  155.4962   43.9793  147.9787 O   0  0  0  0  0  0  0  0  0  0  0  0
  155.0152   45.6219  146.3632 C   0  0  2  0  0  0  0  0  0  0  0  0
  154.4481   45.6445  144.9940 N   0  0  0  0  0  0  0  0  0  0  0  0
  155.0561   46.1405  143.9023 C   0  0  0  0  0  0  0  0  0  0  0  0
  154.2575   46.0191  142.8148 N   0  0  0  0  0  0  0  0  0  0  0  0
  153.1101   45.4350  143.2035 C   0  0  0  0  0  0  0  0  0  0  0  0
  151.8467   45.0157  142.5524 C   0  0  0  0  0  0  0  0  0  0  0  0
  151.6754   45.2040  141.3239 O   0  0  0  0  0  0  0  0  0  0  0  0
  150.9065   44.4378  143.3196 N   0  0  0  0  0  0  0  0  0  0  0  0
  151.0947   44.2394  144.6380 C   0  0  0  0  0  0  0  0  0  0  0  0
  150.1160   43.6488  145.3596 N   0  0  0  0  0  0  0  0  0  0  0  0
  152.2217   44.5976  145.2941 N   0  0  0  0  0  0  0  0  0  0  0  0
  153.2456   45.1894  144.6427 C   0  0  0  0  0  0  0  0  0  0  0  0
  158.1710   42.1963  147.1670 P   0  0  2  0  0  0  0  0  0  0  0  0
  156.8653   41.4904  146.8931 O   0  0  0  0  0  0  0  0  0  0  0  0
  159.0204   41.8266  148.3686 O   0  0  0  0  0  0  0  0  0  0  0  0
  159.0672   42.0937  145.8269 O   0  0  0  0  0  0  0  0  0  0  0  0
  160.4635   42.3839  145.8757 C   0  0  0  0  0  0  0  0  0  0  0  0
  161.0633   42.6937  144.5006 C   0  0  1  0  0  0  0  0  0  0  0  0
  161.1690   41.4836  143.7476 O   0  0  0  0  0  0  0  0  0  0  0  0
  160.2594   43.6747  143.6502 C   0  0  1  0  0  0  0  0  0  0  0  0
  160.7219   45.0174  143.7900 O   0  0  0  0  0  0  0  0  0  0  0  0
  160.4902   43.1487  142.2458 C   0  0  1  0  0  0  0  0  0  0  0  0
  161.6863   43.6987  141.6867 O   0  0  0  0  0  0  0  0  0  0  0  0
  160.7069   41.6584  142.4055 C   0  0  2  0  0  0  0  0  0  0  0  0
  159.4125   40.9496  142.2502 N   0  0  0  0  0  0  0  0  0  0  0  0
  158.8716   40.0960  143.1421 C   0  0  0  0  0  0  0  0  0  0  0  0
  157.6687   39.6162  142.7202 N   0  0  0  0  0  0  0  0  0  0  0  0
  157.4160   40.1763  141.5266 C   0  0  0  0  0  0  0  0  0  0  0  0
  156.3292   40.1015  140.5172 C   0  0  0  0  0  0  0  0  0  0  0  0
  155.3104   39.3965  140.6816 O   0  0  0  0  0  0  0  0  0  0  0  0
  156.4602   40.8429  139.4158 N   0  0  0  0  0  0  0  0  0  0  0  0
  157.5314   41.6206  139.1953 C   0  0  0  0  0  0  0  0  0  0  0  0
  157.5661   42.3130  138.0470 N   0  0  0  0  0  0  0  0  0  0  0  0
  158.5652   41.7350  140.0616 N   0  0  0  0  0  0  0  0  0  0  0  0
  158.5677   41.0496  141.2242 C   0  0  0  0  0  0  0  0  0  0  0  0
  1  3  2  6  0  0  0
  1 32  1  0  0  0  0
  1  2  1  0  0  0  0
  1  4  1  0  0  0  0
  4  5  1  0  0  0  0
  6  5  1  6  0  0  0
  7  6  1  0  0  0  0
  8  6  1  0  0  0  0
  8 10  1  0  0  0  0
  8  9  1  1  0  0  0
 10 11  1  1  0  0  0
 12 13  1  6  0  0  0
 12  7  1  0  0  0  0
 12 10  1  0  0  0  0
 14 13  1  0  0  0  0
 15 16  1  0  0  0  0
 15 14  2  0  0  0  0
 16 23  2  0  0  0  0
 17 16  1  0  0  0  0
 17 19  1  0  0  0  0
 18 17  2  0  0  0  0
 19 20  2  0  0  0  0
 20 22  1  0  0  0  0
 20 21  1  0  0  0  0
 23 13  1  0  0  0  0
 23 22  1  0  0  0  0
 24 25  2  6  0  0  0
 24  9  1  0  0  0  0
 24 26  1  0  0  0  0
 27 28  1  0  0  0  0
 27 24  1  0  0  0  0
 29 30  1  6  0  0  0
 29 28  1  0  0  0  0
 31 32  1  6  0  0  0
 31 29  1  0  0  0  0
 33 34  1  1  0  0  0
 33 35  1  0  0  0  0
 33 31  1  0  0  0  0
 35 36  1  1  0  0  0
 35 30  1  0  0  0  0
 36 37  1  0  0  0  0
 38 37  2  0  0  0  0
 39 38  1  0  0  0  0
 40 41  2  0  0  0  0
 40 39  1  0  0  0  0
 42 40  1  0  0  0  0
 43 42  2  0  0  0  0
 43 45  1  0  0  0  0
 44 43  1  0  0  0  0
 45 46  1  0  0  0  0
 46 39  2  0  0  0  0
 46 36  1  0  0  0  0
M  END
>  <CHROM.1>
20.86122473,-10.43173505,157.17505837,43.58627451,143.91683899,-0.37010204
-0.16625835,1.02249288

>  <Name>
lig.pdb

>  <RI>
0

>  <Rbt.Current_Directory>
/home/itssahil/PROJECTS/Mol_Feturizer/New_Systems/rnas/4yb0

>  <Rbt.Executable>
rbdock ($Id: //depot/dev/client3/rdock/2013.1/src/exe/rbdock.cxx#4 $)

>  <Rbt.Library>
libRbt.so (2013.1, Build901 2013/11/27)

>  <Rbt.Parameter_File>
/export/apps/rDock/src/rDock_2013.1_src/data/scripts/dock_solv.prm

>  <Rbt.Receptor>
prm/pocket_docking_5.prm

>  <SCORE>
-53.58

>  <SCORE.INTER>
-53.4767

>  <SCORE.INTER.CONST>
1

>  <SCORE.INTER.POLAR>
0

>  <SCORE.INTER.ROT>
2

>  <SCORE.INTER.SOLV>
31.1063

>  <SCORE.INTER.VDW>
-50.9532

>  <SCORE.INTER.norm>
-1.16254

>  <SCORE.INTRA>
-0.103285

>  <SCORE.INTRA.DIHEDRAL>
-0.0151174

>  <SCORE.INTRA.DIHEDRAL.0>
4.74153

>  <SCORE.INTRA.POLAR>
0

>  <SCORE.INTRA.POLAR.0>
0

>  <SCORE.INTRA.REPUL>
0

>  <SCORE.INTRA.REPUL.0>
0

>  <SCORE.INTRA.SOLV>
0.00460994

>  <SCORE.INTRA.SOLV.lig_0>
-60.4375

>  <SCORE.INTRA.VDW>
-0.0980312

>  <SCORE.INTRA.VDW.0>
-1.83689

>  <SCORE.INTRA.norm>
-0.00224533

>  <SCORE.RESTR>
0

>  <SCORE.RESTR.CAVITY>
0

>  <SCORE.RESTR.norm>
0

>  <SCORE.SYSTEM>
0

>  <SCORE.SYSTEM.CONST>
0

>  <SCORE.SYSTEM.DIHEDRAL>
0

>  <SCORE.SYSTEM.SOLV>
0

>  <SCORE.SYSTEM.norm>
0

>  <SCORE.heavy>
46

>  <SCORE.norm>
-1.16478

>  <RMSD>
0.425

$$$$
lig.pdb
 OpenBabel11021811523D
libRbt.so/2013.1/901 2013/11/27
 46 52  0  0  0  0  0  0  0  0999 V2000
  159.7096   46.2133  143.4578 P   0  0  2  0  0  0  0  0  0  0  0  0
  160.3684   47.5429  143.7543 O   0  0  0  0  0  0  0  0  0  0  0  0
  159.2175   46.0001  142.0494 O   0  0  0  0  0  0  0  0  0  0  0  0
  158.4910   45.9269  144.4669 O   0  0  0  0  0  0  0  0  0  0  0  0
  158.2590   46.7464  145.6051 C   0  0  0  0  0  0  0  0  0  0  0  0
  157.3242   46.0397  146.5728 C   0  0  1  0  0  0  0  0  0  0  0  0
  156.0342   46.6196  146.4403 O   0  0  0  0  0  0  0  0  0  0  0  0
  157.1446   44.5444  146.3430 C   0  0  1  0  0  0  0  0  0  0  0  0
  157.8917   43.8193  147.3086 O   0  0  0  0  0  0  0  0  0  0  0  0
  155.6751   44.3193  146.6202 C   0  0  1  0  0  0  0  0  0  0  0  0
  155.4889   44.0172  148.0044 O   0  0  0  0  0  0  0  0  0  0  0  0
  155.0086   45.6408  146.3697 C   0  0  2  0  0  0  0  0  0  0  0  0
  154.4404   45.6477  145.0008 N   0  0  0  0  0  0  0  0  0  0  0  0
  155.0457   46.1349  143.9037 C   0  0  0  0  0  0  0  0  0  0  0  0
  154.2468   45.9997  142.8181 N   0  0  0  0  0  0  0  0  0  0  0  0
  153.1018   45.4154  143.2136 C   0  0  0  0  0  0  0  0  0  0  0  0
  151.8394   44.9851  142.5677 C   0  0  0  0  0  0  0  0  0  0  0  0
  151.6665   45.1604  141.3375 O   0  0  0  0  0  0  0  0  0  0  0  0
  150.9019   44.4115  143.3414 N   0  0  0  0  0  0  0  0  0  0  0  0
  151.0918   44.2270  144.6616 C   0  0  0  0  0  0  0  0  0  0  0  0
  150.1158   43.6401  145.3899 N   0  0  0  0  0  0  0  0  0  0  0  0
  152.2180   44.5958  145.3131 N   0  0  0  0  0  0  0  0  0  0  0  0
  153.2392   45.1848  144.6550 C   0  0  0  0  0  0  0  0  0  0  0  0
  158.1608   42.2211  147.2120 P   0  0  2  0  0  0  0  0  0  0  0  0
  156.8539   41.5136  146.9477 O   0  0  0  0  0  0  0  0  0  0  0  0
  159.0106   41.8648  148.4173 O   0  0  0  0  0  0  0  0  0  0  0  0
  159.0556   42.1012  145.8725 O   0  0  0  0  0  0  0  0  0  0  0  0
  160.4524   42.3902  145.9167 C   0  0  0  0  0  0  0  0  0  0  0  0
  161.0514   42.6827  144.5374 C   0  0  1  0  0  0  0  0  0  0  0  0
  161.1549   41.4634  143.7989 O   0  0  0  0  0  0  0  0  0  0  0  0
  160.2480   43.6544  143.6759 C   0  0  1  0  0  0  0  0  0  0  0  0
  160.7124   44.9980  143.7992 O   0  0  0  0  0  0  0  0  0  0  0  0
  160.4769   43.1112  142.2778 C   0  0  1  0  0  0  0  0  0  0  0  0
  161.6733   43.6529  141.7111 O   0  0  0  0  0  0  0  0  0  0  0  0
  160.6919   41.6227  142.4553 C   0  0  2  0  0  0  0  0  0  0  0  0
  159.3964   40.9136  142.3096 N   0  0  0  0  0  0  0  0  0  0  0  0
  158.8568   40.0689  143.2106 C   0  0  0  0  0  0  0  0  0  0  0  0
  157.6524   39.5864  142.7960 N   0  0  0  0  0  0  0  0  0  0  0  0
  157.3975   40.1357  141.5979 C   0  0  0  0  0  0  0  0  0  0  0  0
  156.3083   40.0526  140.5917 C   0  0  0  0  0  0  0  0  0  0  0  0
  155.2892   39.3501  140.7651 O   0  0  0  0  0  0  0  0  0  0  0  0
  156.4374   40.7835  139.4833 N   0  0  0  0  0  0  0  0  0  0  0  0
  157.5088   41.5581  139.2530 C   0  0  0  0  0  0  0  0  0  0  0  0
  157.5414   42.2398  138.0983 N   0  0  0  0  0  0  0  0  0  0  0  0
  158.5447   41.6796  140.1158 N   0  0  0  0  0  0  0  0  0  0  0  0
  158.5493   41.0050  141.2847 C   0  0  0  0  0  0  0  0  0  0  0  0
  1  3  2  6  0  0  0
  1 32  1  0  0  0  0
  1  2  1  0  0  0  0
  1  4  1  0  0  0  0
  4  5  1  0  0  0  0
  6  5  1  6  0  0  0
  7  6  1  0  0  0  0
  8  6  1  0  0  0  0
  8 10  1  0  0  0  0
  8  9  1  1  0  0  0
 10 11  1  1  0  0  0
 12 13  1  6  0  0  0
 12  7  1  0  0  0  0
 12 10  1  0  0  0  0
 14 13  1  0  0  0  0
 15 16  1  0  0  0  0
 15 14  2  0  0  0  0
 16 23  2  0  0  0  0
 17 16  1  0  0  0  0
 17 19  1  0  0  0  0
 18 17  2  0  0  0  0
 19 20  2  0  0  0  0
 20 22  1  0  0  0  0
 20 21  1  0  0  0  0
 23 13  1  0  0  0  0
 23 22  1  0  0  0  0
 24 25  2  6  0  0  0
 24  9  1  0  0  0  0
 24 26  1  0  0  0  0
 27 28  1  0  0  0  0
 27 24  1  0  0  0  0
 29 30  1  6  0  0  0
 29 28  1  0  0  0  0
 31 32  1  6  0  0  0
 31 29  1  0  0  0  0
 33 34  1  1  0  0  0
 33 35  1  0  0  0  0
 33 31  1  0  0  0  0
 35 36  1  1  0  0  0
 35 30  1  0  0  0  0
 36 37  1  0  0  0  0
 38 37  2  0  0  0  0
 39 38  1  0  0  0  0
 40 41  2  0  0  0  0
 40 39  1  0  0  0  0
 42 40  1  0  0  0  0
 43 42  2  0  0  0  0
 43 45  1  0  0  0  0
 44 43  1  0  0  0  0
 45 46  1  0  0  0  0
 46 39  2  0  0  0  0
 46 36  1  0  0  0  0
M  END
>  <CHROM.1>
20.55776331,-10.61331212,157.16397645,43.57234866,143.94636697,-0.36912615
-0.16596234,1.01024029

>  <Name>
lig.pdb

>  <RI>
0

>  <Rbt.Current_Directory>
/home/itssahil/PROJECTS/Mol_Feturizer/New_Systems/rnas/4yb0

>  <Rbt.Executable>
rbdock ($Id: //depot/dev/client3/rdock/2013.1/src/exe/rbdock.cxx#4 $)

>  <Rbt.Library>
libRbt.so (2013.1, Build901 2013/11/27)

>  <Rbt.Parameter_File>
/export/apps/rDock/src/rDock_2013.1_src/data/scripts/dock_solv.prm

>  <Rbt.Receptor>
prm/pocket_docking_2.prm

>  <SCORE>
-53.6091

>  <SCORE.INTER>
-53.5088

>  <SCORE.INTER.CONST>
1

>  <SCORE.INTER.POLAR>
0

>  <SCORE.INTER.ROT>
2

>  <SCORE.INTER.SOLV>
30.9704

>  <SCORE.INTER.VDW>
-50.9293

>  <SCORE.INTER.norm>
-1.16324

>  <SCORE.INTRA>
-0.100261

>  <SCORE.INTRA.DIHEDRAL>
-0.0152689

>  <SCORE.INTRA.DIHEDRAL.0>
4.74153

>  <SCORE.INTRA.POLAR>
0

>  <SCORE.INTRA.POLAR.0>
0

>  <SCORE.INTRA.REPUL>
0

>  <SCORE.INTRA.REPUL.0>
0

>  <SCORE.INTRA.SOLV>
0.00336549

>  <SCORE.INTRA.SOLV.lig_0>
-60.4375

>  <SCORE.INTRA.VDW>
-0.0943089

>  <SCORE.INTRA.VDW.0>
-1.83689

>  <SCORE.INTRA.norm>
-0.00217958

>  <SCORE.RESTR>
0

>  <SCORE.RESTR.CAVITY>
0

>  <SCORE.RESTR.norm>
0

>  <SCORE.SYSTEM>
0

>  <SCORE.SYSTEM.CONST>
0

>  <SCORE.SYSTEM.DIHEDRAL>
0

>  <SCORE.SYSTEM.SOLV>
0

>  <SCORE.SYSTEM.norm>
0

>  <SCORE.heavy>
46

>  <SCORE.norm>
-1.16542

>  <RMSD>
0.427

$$$$
lig.pdb
 OpenBabel11021811523D
libRbt.so/2013.1/901 2013/11/27
 46 52  0  0  0  0  0  0  0  0999 V2000
  159.7030   46.2289  143.4420 P   0  0  2  0  0  0  0  0  0  0  0  0
  160.3574   47.5600  143.7412 O   0  0  0  0  0  0  0  0  0  0  0  0
  159.2100   46.0177  142.0336 O   0  0  0  0  0  0  0  0  0  0  0  0
  158.4867   45.9355  144.4518 O   0  0  0  0  0  0  0  0  0  0  0  0
  158.2531   46.7511  145.5925 C   0  0  0  0  0  0  0  0  0  0  0  0
  157.3220   46.0385  146.5593 C   0  0  1  0  0  0  0  0  0  0  0  0
  156.0297   46.6141  146.4300 O   0  0  0  0  0  0  0  0  0  0  0  0
  157.1474   44.5432  146.3258 C   0  0  1  0  0  0  0  0  0  0  0  0
  157.8983   43.8182  147.2886 O   0  0  0  0  0  0  0  0  0  0  0  0
  155.6791   44.3121  146.6042 C   0  0  1  0  0  0  0  0  0  0  0  0
  155.4956   44.0056  147.9878 O   0  0  0  0  0  0  0  0  0  0  0  0
  155.0076   45.6319  146.3580 C   0  0  2  0  0  0  0  0  0  0  0  0
  154.4377   45.6403  144.9898 N   0  0  0  0  0  0  0  0  0  0  0  0
  155.0438   46.1242  143.8916 C   0  0  0  0  0  0  0  0  0  0  0  0
  154.2429   45.9918  142.8070 N   0  0  0  0  0  0  0  0  0  0  0  0
  153.0959   45.4127  143.2043 C   0  0  0  0  0  0  0  0  0  0  0  0
  151.8308   44.9875  142.5603 C   0  0  0  0  0  0  0  0  0  0  0  0
  151.6572   45.1628  141.3302 O   0  0  0  0  0  0  0  0  0  0  0  0
  150.8918   44.4185  143.3356 N   0  0  0  0  0  0  0  0  0  0  0  0
  151.0825   44.2341  144.6556 C   0  0  0  0  0  0  0  0  0  0  0  0
  150.1049   43.6519  145.3855 N   0  0  0  0  0  0  0  0  0  0  0  0
  152.2111   44.5984  145.3055 N   0  0  0  0  0  0  0  0  0  0  0  0
  153.2341   45.1824  144.6457 C   0  0  0  0  0  0  0  0  0  0  0  0
  158.1729   42.2212  147.1874 P   0  0  2  0  0  0  0  0  0  0  0  0
  156.8683   41.5098  146.9228 O   0  0  0  0  0  0  0  0  0  0  0  0
  159.0255   41.8648  148.3907 O   0  0  0  0  0  0  0  0  0  0  0  0
  159.0666   42.1081  145.8466 O   0  0  0  0  0  0  0  0  0  0  0  0
  160.4624   42.4019  145.8898 C   0  0  0  0  0  0  0  0  0  0  0  0
  161.0587   42.7002  144.5107 C   0  0  1  0  0  0  0  0  0  0  0  0
  161.1657   41.4833  143.7688 O   0  0  0  0  0  0  0  0  0  0  0  0
  160.2508   43.6713  143.6527 C   0  0  1  0  0  0  0  0  0  0  0  0
  160.7105   45.0163  143.7790 O   0  0  0  0  0  0  0  0  0  0  0  0
  160.4800   43.1327  142.2529 C   0  0  1  0  0  0  0  0  0  0  0  0
  161.6737   43.6802  141.6862 O   0  0  0  0  0  0  0  0  0  0  0  0
  160.7005   41.6445  142.4261 C   0  0  2  0  0  0  0  0  0  0  0  0
  159.4074   40.9312  142.2801 N   0  0  0  0  0  0  0  0  0  0  0  0
  158.8848   40.0614  143.1671 C   0  0  0  0  0  0  0  0  0  0  0  0
  157.6779   39.5817  142.7567 N   0  0  0  0  0  0  0  0  0  0  0  0
  157.4038   40.1585  141.5758 C   0  0  0  0  0  0  0  0  0  0  0  0
  156.3018   40.0933  140.5823 C   0  0  0  0  0  0  0  0  0  0  0  0
  155.2893   39.3805  140.7517 O   0  0  0  0  0  0  0  0  0  0  0  0
  156.4119   40.8519  139.4905 N   0  0  0  0  0  0  0  0  0  0  0  0
  157.4756   41.6385  139.2653 C   0  0  0  0  0  0  0  0  0  0  0  0
  157.4889   42.3485  138.1273 N   0  0  0  0  0  0  0  0  0  0  0  0
  158.5221   41.7453  140.1171 N   0  0  0  0  0  0  0  0  0  0  0  0
  158.5462   41.0424  141.2689 C   0  0  0  0  0  0  0  0  0  0  0  0
  1  3  2  6  0  0  0
  1 32  1  0  0  0  0
  1  2  1  0  0  0  0
  1  4  1  0  0  0  0
  4  5  1  0  0  0  0
  6  5  1  6  0  0  0
  7  6  1  0  0  0  0
  8  6  1  0  0  0  0
  8 10  1  0  0  0  0
  8  9  1  1  0  0  0
 10 11  1  1  0  0  0
 12 13  1  6  0  0  0
 12  7  1  0  0  0  0
 12 10  1  0  0  0  0
 14 13  1  0  0  0  0
 15 16  1  0  0  0  0
 15 14  2  0  0  0  0
 16 23  2  0  0  0  0
 17 16  1  0  0  0  0
 17 19  1  0  0  0  0
 18 17  2  0  0  0  0
 19 20  2  0  0  0  0
 20 22  1  0  0  0  0
 20 21  1  0  0  0  0
 23 13  1  0  0  0  0
 23 22  1  0  0  0  0
 24 25  2  6  0  0  0
 24  9  1  0  0  0  0
 24 26  1  0  0  0  0
 27 28  1  0  0  0  0
 27 24  1  0  0  0  0
 29 30  1  6  0  0  0
 29 28  1  0  0  0  0
 31 32  1  6  0  0  0
 31 29  1  0  0  0  0
 33 34  1  1  0  0  0
 33 35  1  0  0  0  0
 33 31  1  0  0  0  0
 35 36  1  1  0  0  0
 35 30  1  0  0  0  0
 36 37  1  0  0  0  0
 38 37  2  0  0  0  0
 39 38  1  0  0  0  0
 40 41  2  0  0  0  0
 40 39  1  0  0  0  0
 42 40  1  0  0  0  0
 43 42  2  0  0  0  0
 43 45  1  0  0  0  0
 44 43  1  0  0  0  0
 45 46  1  0  0  0  0
 46 39  2  0  0  0  0
 46 36  1  0  0  0  0
M  END
>  <CHROM.1>
21.04941432,-12.04789655,157.16275036,43.58582230,143.93067670,-0.35620654
-0.16514180,1.01633842

>  <Name>
lig.pdb

>  <RI>
0

>  <Rbt.Current_Directory>
/home/itssahil/PROJECTS/Mol_Feturizer/New_Systems/rnas/4yb0

>  <Rbt.Executable>
rbdock ($Id: //depot/dev/client3/rdock/2013.1/src/exe/rbdock.cxx#4 $)

>  <Rbt.Library>
libRbt.so (2013.1, Build901 2013/11/27)

>  <Rbt.Parameter_File>
/export/apps/rDock/src/rDock_2013.1_src/data/scripts/dock_solv.prm

>  <Rbt.Receptor>
prm/pocket_docking_2.prm

>  <SCORE>
-53.5359

>  <SCORE.INTER>
-53.4374

>  <SCORE.INTER.CONST>
1

>  <SCORE.INTER.POLAR>
0

>  <SCORE.INTER.ROT>
2

>  <SCORE.INTER.SOLV>
31.0172

>  <SCORE.INTER.VDW>
-50.8973

>  <SCORE.INTER.norm>
-1.16168

>  <SCORE.INTRA>
-0.0985193

>  <SCORE.INTRA.DIHEDRAL>
-0.019471

>  <SCORE.INTRA.DIHEDRAL.0>
4.74153

>  <SCORE.INTRA.POLAR>
0

>  <SCORE.INTRA.POLAR.0>
0

>  <SCORE.INTRA.REPUL>
0

>  <SCORE.INTRA.REPUL.0>
0

>  <SCORE.INTRA.SOLV>
-0.00169874

>  <SCORE.INTRA.SOLV.lig_0>
-60.4375

>  <SCORE.INTRA.VDW>
-0.0879345

>  <SCORE.INTRA.VDW.0>
-1.83689

>  <SCORE.INTRA.norm>
-0.00214172

>  <SCORE.RESTR>
0

>  <SCORE.RESTR.CAVITY>
0

>  <SCORE.RESTR.norm>
0

>  <SCORE.SYSTEM>
0

>  <SCORE.SYSTEM.CONST>
0

>  <SCORE.SYSTEM.DIHEDRAL>
0

>  <SCORE.SYSTEM.SOLV>
0

>  <SCORE.SYSTEM.norm>
0

>  <SCORE.heavy>
46

>  <SCORE.norm>
-1.16382

>  <RMSD>
0.429

$$$$
lig.pdb
 OpenBabel11021811523D
libRbt.so/2013.1/901 2013/11/27
 46 52  0  0  0  0  0  0  0  0999 V2000
  159.7162   46.2108  143.4639 P   0  0  2  0  0  0  0  0  0  0  0  0
  160.3761   47.5392  143.7631 O   0  0  0  0  0  0  0  0  0  0  0  0
  159.2270   45.9996  142.0543 O   0  0  0  0  0  0  0  0  0  0  0  0
  158.4951   45.9251  144.4701 O   0  0  0  0  0  0  0  0  0  0  0  0
  158.2617   46.7438  145.6086 C   0  0  0  0  0  0  0  0  0  0  0  0
  157.3238   46.0373  146.5735 C   0  0  1  0  0  0  0  0  0  0  0  0
  156.0349   46.6190  146.4388 O   0  0  0  0  0  0  0  0  0  0  0  0
  157.1428   44.5425  146.3419 C   0  0  1  0  0  0  0  0  0  0  0  0
  157.8869   43.8155  147.3085 O   0  0  0  0  0  0  0  0  0  0  0  0
  155.6724   44.3191  146.6157 C   0  0  1  0  0  0  0  0  0  0  0  0
  155.4827   44.0158  147.9992 O   0  0  0  0  0  0  0  0  0  0  0  0
  155.0082   45.6417  146.3650 C   0  0  2  0  0  0  0  0  0  0  0  0
  154.4429   45.6506  144.9949 N   0  0  0  0  0  0  0  0  0  0  0  0
  155.0555   46.1286  143.8978 C   0  0  0  0  0  0  0  0  0  0  0  0
  154.2576   45.9986  142.8108 N   0  0  0  0  0  0  0  0  0  0  0  0
  153.1059   45.4271  143.2054 C   0  0  0  0  0  0  0  0  0  0  0  0
  151.8405   45.0079  142.5580 C   0  0  0  0  0  0  0  0  0  0  0  0
  151.6720   45.1816  141.3270 O   0  0  0  0  0  0  0  0  0  0  0  0
  150.8956   44.4460  143.3313 N   0  0  0  0  0  0  0  0  0  0  0  0
  151.0808   44.2632  144.6523 C   0  0  0  0  0  0  0  0  0  0  0  0
  150.0973   43.6883  145.3801 N   0  0  0  0  0  0  0  0  0  0  0  0
  152.2093   44.6223  145.3053 N   0  0  0  0  0  0  0  0  0  0  0  0
  153.2379   45.1990  144.6477 C   0  0  0  0  0  0  0  0  0  0  0  0
  158.1540   42.2170  147.2109 P   0  0  2  0  0  0  0  0  0  0  0  0
  156.8468   41.5115  146.9431 O   0  0  0  0  0  0  0  0  0  0  0  0
  159.0008   41.8584  148.4177 O   0  0  0  0  0  0  0  0  0  0  0  0
  159.0516   42.0972  145.8732 O   0  0  0  0  0  0  0  0  0  0  0  0
  160.4487   42.3843  145.9207 C   0  0  0  0  0  0  0  0  0  0  0  0
  161.0511   42.6774  144.5431 C   0  0  1  0  0  0  0  0  0  0  0  0
  161.1546   41.4587  143.8036 O   0  0  0  0  0  0  0  0  0  0  0  0
  160.2508   43.6509  143.6807 C   0  0  1  0  0  0  0  0  0  0  0  0
  160.7167   44.9938  143.8063 O   0  0  0  0  0  0  0  0  0  0  0  0
  160.4821   43.1088  142.2826 C   0  0  1  0  0  0  0  0  0  0  0  0
  161.6804   43.6495  141.7191 O   0  0  0  0  0  0  0  0  0  0  0  0
  160.6947   41.6198  142.4591 C   0  0  2  0  0  0  0  0  0  0  0  0
  159.3986   40.9127  142.3099 N   0  0  0  0  0  0  0  0  0  0  0  0
  158.8576   40.0652  143.2075 C   0  0  0  0  0  0  0  0  0  0  0  0
  157.6530   39.5854  142.7903 N   0  0  0  0  0  0  0  0  0  0  0  0
  157.3995   40.1393  141.5940 C   0  0  0  0  0  0  0  0  0  0  0  0
  156.3109   40.0609  140.5867 C   0  0  0  0  0  0  0  0  0  0  0  0
  155.2910   39.3589  140.7568 O   0  0  0  0  0  0  0  0  0  0  0  0
  156.4416   40.7958  139.4810 N   0  0  0  0  0  0  0  0  0  0  0  0
  157.5139   41.5701  139.2543 C   0  0  0  0  0  0  0  0  0  0  0  0
  157.5481   42.2559  138.1020 N   0  0  0  0  0  0  0  0  0  0  0  0
  158.5493   41.6874  140.1183 N   0  0  0  0  0  0  0  0  0  0  0  0
  158.5524   41.0086  141.2847 C   0  0  0  0  0  0  0  0  0  0  0  0
  1  3  2  6  0  0  0
  1 32  1  0  0  0  0
  1  2  1  0  0  0  0
  1  4  1  0  0  0  0
  4  5  1  0  0  0  0
  6  5  1  6  0  0  0
  7  6  1  0  0  0  0
  8  6  1  0  0  0  0
  8 10  1  0  0  0  0
  8  9  1  1  0  0  0
 10 11  1  1  0  0  0
 12 13  1  6  0  0  0
 12  7  1  0  0  0  0
 12 10  1  0  0  0  0
 14 13  1  0  0  0  0
 15 16  1  0  0  0  0
 15 14  2  0  0  0  0
 16 23  2  0  0  0  0
 17 16  1  0  0  0  0
 17 19  1  0  0  0  0
 18 17  2  0  0  0  0
 19 20  2  0  0  0  0
 20 22  1  0  0  0  0
 20 21  1  0  0  0  0
 23 13  1  0  0  0  0
 23 22  1  0  0  0  0
 24 25  2  6  0  0  0
 24  9  1  0  0  0  0
 24 26  1  0  0  0  0
 27 28  1  0  0  0  0
 27 24  1  0  0  0  0
 29 30  1  6  0  0  0
 29 28  1  0  0  0  0
 31 32  1  6  0  0  0
 31 29  1  0  0  0  0
 33 34  1  1  0  0  0
 33 35  1  0  0  0  0
 33 31  1  0  0  0  0
 35 36  1  1  0  0  0
 35 30  1  0  0  0  0
 36 37  1  0  0  0  0
 38 37  2  0  0  0  0
 39 38  1  0  0  0  0
 40 41  2  0  0  0  0
 40 39  1  0  0  0  0
 42 40  1  0  0  0  0
 43 42  2  0  0  0  0
 43 45  1  0  0  0  0
 44 43  1  0  0  0  0
 45 46  1  0  0  0  0
 46 39  2  0  0  0  0
 46 36  1  0  0  0  0
M  END
>  <CHROM.1>
21.10816554,-10.78687597,157.16452579,43.57616196,143.94531612,-0.36759963
-0.17033527,1.01237221

>  <Name>
lig.pdb

>  <RI>
0

>  <Rbt.Current_Directory>
/home/itssahil/PROJECTS/Mol_Feturizer/New_Systems/rnas/4yb0

>  <Rbt.Executable>
rbdock ($Id: //depot/dev/client3/rdock/2013.1/src/exe/rbdock.cxx#4 $)

>  <Rbt.Library>
libRbt.so (2013.1, Build901 2013/11/27)

>  <Rbt.Parameter_File>
/export/apps/rDock/src/rDock_2013.1_src/data/scripts/dock_solv.prm

>  <Rbt.Receptor>
prm/pocket_docking_4.prm

>  <SCORE>
-53.6119

>  <SCORE.INTER>
-53.508

>  <SCORE.INTER.CONST>
1

>  <SCORE.INTER.POLAR>
0

>  <SCORE.INTER.ROT>
2

>  <SCORE.INTER.SOLV>
31.0327

>  <SCORE.INTER.VDW>
-50.9496

>  <SCORE.INTER.norm>
-1.16322

>  <SCORE.INTRA>
-0.103927

>  <SCORE.INTRA.DIHEDRAL>
-0.0163106

>  <SCORE.INTRA.DIHEDRAL.0>
4.74153

>  <SCORE.INTRA.POLAR>
0

>  <SCORE.INTRA.POLAR.0>
0

>  <SCORE.INTRA.REPUL>
0

>  <SCORE.INTRA.REPUL.0>
0

>  <SCORE.INTRA.SOLV>
0.00352411

>  <SCORE.INTRA.SOLV.lig_0>
-60.4375

>  <SCORE.INTRA.VDW>
-0.0975336

>  <SCORE.INTRA.VDW.0>
-1.83689

>  <SCORE.INTRA.norm>
-0.00225928

>  <SCORE.RESTR>
0

>  <SCORE.RESTR.CAVITY>
0

>  <SCORE.RESTR.norm>
0

>  <SCORE.SYSTEM>
0

>  <SCORE.SYSTEM.CONST>
0

>  <SCORE.SYSTEM.DIHEDRAL>
0

>  <SCORE.SYSTEM.SOLV>
0

>  <SCORE.SYSTEM.norm>
0

>  <SCORE.heavy>
46

>  <SCORE.norm>
-1.16548

>  <RMSD>
0.430

$$$$
lig.pdb
 OpenBabel11021811523D
libRbt.so/2013.1/901 2013/11/27
 46 52  0  0  0  0  0  0  0  0999 V2000
  159.7150   46.2093  143.4577 P   0  0  2  0  0  0  0  0  0  0  0  0
  160.3748   47.5382  143.7548 O   0  0  0  0  0  0  0  0  0  0  0  0
  159.2241   45.9965  142.0488 O   0  0  0  0  0  0  0  0  0  0  0  0
  158.4953   45.9240  144.4656 O   0  0  0  0  0  0  0  0  0  0  0  0
  158.2630   46.7438  145.6037 C   0  0  0  0  0  0  0  0  0  0  0  0
  157.3265   46.0379  146.5704 C   0  0  1  0  0  0  0  0  0  0  0  0
  156.0372   46.6190  146.4368 O   0  0  0  0  0  0  0  0  0  0  0  0
  157.1458   44.5428  146.3404 C   0  0  1  0  0  0  0  0  0  0  0  0
  157.8913   43.8170  147.3068 O   0  0  0  0  0  0  0  0  0  0  0  0
  155.6758   44.3191  146.6163 C   0  0  1  0  0  0  0  0  0  0  0  0
  155.4880   44.0171  148.0004 O   0  0  0  0  0  0  0  0  0  0  0  0
  155.0108   45.6412  146.3652 C   0  0  2  0  0  0  0  0  0  0  0  0
  154.4438   45.6486  144.9958 N   0  0  0  0  0  0  0  0  0  0  0  0
  155.0566   46.1219  143.8967 C   0  0  0  0  0  0  0  0  0  0  0  0
  154.2568   45.9919  142.8111 N   0  0  0  0  0  0  0  0  0  0  0  0
  153.1037   45.4251  143.2085 C   0  0  0  0  0  0  0  0  0  0  0  0
  151.8362   45.0085  142.5638 C   0  0  0  0  0  0  0  0  0  0  0  0
  151.6667   45.1797  141.3326 O   0  0  0  0  0  0  0  0  0  0  0  0
  150.8904   44.4516  143.3396 N   0  0  0  0  0  0  0  0  0  0  0  0
  151.0767   44.2714  144.6609 C   0  0  0  0  0  0  0  0  0  0  0  0
  150.0923   43.7015  145.3913 N   0  0  0  0  0  0  0  0  0  0  0  0
  152.2072   44.6284  145.3115 N   0  0  0  0  0  0  0  0  0  0  0  0
  153.2369   45.2001  144.6513 C   0  0  0  0  0  0  0  0  0  0  0  0
  158.1589   42.2185  147.2104 P   0  0  2  0  0  0  0  0  0  0  0  0
  156.8517   41.5123  146.9449 O   0  0  0  0  0  0  0  0  0  0  0  0
  159.0074   41.8614  148.4165 O   0  0  0  0  0  0  0  0  0  0  0  0
  159.0549   42.0978  145.8718 O   0  0  0  0  0  0  0  0  0  0  0  0
  160.4519   42.3854  145.9172 C   0  0  0  0  0  0  0  0  0  0  0  0
  161.0525   42.6774  144.5385 C   0  0  1  0  0  0  0  0  0  0  0  0
  161.1556   41.4580  143.8001 O   0  0  0  0  0  0  0  0  0  0  0  0
  160.2508   43.6498  143.6763 C   0  0  1  0  0  0  0  0  0  0  0  0
  160.7163   44.9930  143.8000 O   0  0  0  0  0  0  0  0  0  0  0  0
  160.4805   43.1065  142.2784 C   0  0  1  0  0  0  0  0  0  0  0  0
  161.6779   43.6470  141.7128 O   0  0  0  0  0  0  0  0  0  0  0  0
  160.6939   41.6177  142.4560 C   0  0  2  0  0  0  0  0  0  0  0  0
  159.3979   40.9099  142.3091 N   0  0  0  0  0  0  0  0  0  0  0  0
  158.8598   40.0606  143.2067 C   0  0  0  0  0  0  0  0  0  0  0  0
  157.6544   39.5807  142.7920 N   0  0  0  0  0  0  0  0  0  0  0  0
  157.3974   40.1364  141.5973 C   0  0  0  0  0  0  0  0  0  0  0  0
  156.3062   40.0590  140.5928 C   0  0  0  0  0  0  0  0  0  0  0  0
  155.2872   39.3559  140.7645 O   0  0  0  0  0  0  0  0  0  0  0  0
  156.4334   40.7957  139.4879 N   0  0  0  0  0  0  0  0  0  0  0  0
  157.5046   41.5711  139.2597 C   0  0  0  0  0  0  0  0  0  0  0  0
  157.5352   42.2589  138.1085 N   0  0  0  0  0  0  0  0  0  0  0  0
  158.5422   41.6877  140.1211 N   0  0  0  0  0  0  0  0  0  0  0  0
  158.5489   41.0070  141.2864 C   0  0  0  0  0  0  0  0  0  0  0  0
  1  3  2  6  0  0  0
  1 32  1  0  0  0  0
  1  2  1  0  0  0  0
  1  4  1  0  0  0  0
  4  5  1  0  0  0  0
  6  5  1  6  0  0  0
  7  6  1  0  0  0  0
  8  6  1  0  0  0  0
  8 10  1  0  0  0  0
  8  9  1  1  0  0  0
 10 11  1  1  0  0  0
 12 13  1  6  0  0  0
 12  7  1  0  0  0  0
 12 10  1  0  0  0  0
 14 13  1  0  0  0  0
 15 16  1  0  0  0  0
 15 14  2  0  0  0  0
 16 23  2  0  0  0  0
 17 16  1  0  0  0  0
 17 19  1  0  0  0  0
 18 17  2  0  0  0  0
 19 20  2  0  0  0  0
 20 22  1  0  0  0  0
 20 21  1  0  0  0  0
 23 13  1  0  0  0  0
 23 22  1  0  0  0  0
 24 25  2  6  0  0  0
 24  9  1  0  0  0  0
 24 26  1  0  0  0  0
 27 28  1  0  0  0  0
 27 24  1  0  0  0  0
 29 30  1  6  0  0  0
 29 28  1  0  0  0  0
 31 32  1  6  0  0  0
 31 29  1  0  0  0  0
 33 34  1  1  0  0  0
 33 35  1  0  0  0  0
 33 31  1  0  0  0  0
 35 36  1  1  0  0  0
 35 30  1  0  0  0  0
 36 37  1  0  0  0  0
 38 37  2  0  0  0  0
 39 38  1  0  0  0  0
 40 41  2  0  0  0  0
 40 39  1  0  0  0  0
 42 40  1  0  0  0  0
 43 42  2  0  0  0  0
 43 45  1  0  0  0  0
 44 43  1  0  0  0  0
 45 46  1  0  0  0  0
 46 39  2  0  0  0  0
 46 36  1  0  0  0  0
M  END
>  <CHROM.1>
21.33406773,-10.95777692,157.16395851,43.57599411,143.94541196,-0.36742565
-0.17030078,1.01185500

>  <Name>
lig.pdb

>  <RI>
0

>  <Rbt.Current_Directory>
/home/itssahil/PROJECTS/Mol_Feturizer/New_Systems/rnas/4yb0

>  <Rbt.Executable>
rbdock ($Id: //depot/dev/client3/rdock/2013.1/src/exe/rbdock.cxx#4 $)

>  <Rbt.Library>
libRbt.so (2013.1, Build901 2013/11/27)

>  <Rbt.Parameter_File>
/export/apps/rDock/src/rDock_2013.1_src/data/scripts/dock_solv.prm

>  <Rbt.Receptor>
prm/pocket_docking_2.prm

>  <SCORE>
-53.6123

>  <SCORE.INTER>
-53.5072

>  <SCORE.INTER.CONST>
1

>  <SCORE.INTER.POLAR>
0

>  <SCORE.INTER.ROT>
2

>  <SCORE.INTER.SOLV>
31.0636

>  <SCORE.INTER.VDW>
-50.9593

>  <SCORE.INTER.norm>
-1.1632

>  <SCORE.INTRA>
-0.10505

>  <SCORE.INTRA.DIHEDRAL>
-0.0169868

>  <SCORE.INTRA.DIHEDRAL.0>
4.74153

>  <SCORE.INTRA.POLAR>
0

>  <SCORE.INTRA.POLAR.0>
0

>  <SCORE.INTRA.REPUL>
0

>  <SCORE.INTRA.REPUL.0>
0

>  <SCORE.INTRA.SOLV>
0.00315012

>  <SCORE.INTRA.SOLV.lig_0>
-60.4375

>  <SCORE.INTRA.VDW>
-0.0981318

>  <SCORE.INTRA.VDW.0>
-1.83689

>  <SCORE.INTRA.norm>
-0.0022837

>  <SCORE.RESTR>
0

>  <SCORE.RESTR.CAVITY>
0

>  <SCORE.RESTR.norm>
0

>  <SCORE.SYSTEM>
0

>  <SCORE.SYSTEM.CONST>
0

>  <SCORE.SYSTEM.DIHEDRAL>
0

>  <SCORE.SYSTEM.SOLV>
0

>  <SCORE.SYSTEM.norm>
0

>  <SCORE.heavy>
46

>  <SCORE.norm>
-1.16548

>  <RMSD>
0.431

$$$$
lig.pdb
 OpenBabel11021811523D
libRbt.so/2013.1/901 2013/11/27
 46 52  0  0  0  0  0  0  0  0999 V2000
  159.7070   46.2027  143.4163 P   0  0  2  0  0  0  0  0  0  0  0  0
  160.3730   47.5264  143.7228 O   0  0  0  0  0  0  0  0  0  0  0  0
  159.2058   46.0063  142.0087 O   0  0  0  0  0  0  0  0  0  0  0  0
  158.4932   45.9107  144.4295 O   0  0  0  0  0  0  0  0  0  0  0  0
  158.2713   46.7191  145.5777 C   0  0  0  0  0  0  0  0  0  0  0  0
  157.3392   46.0060  146.5433 C   0  0  1  0  0  0  0  0  0  0  0  0
  156.0509   46.5925  146.4246 O   0  0  0  0  0  0  0  0  0  0  0  0
  157.1522   44.5140  146.2989 C   0  0  1  0  0  0  0  0  0  0  0  0
  157.9020   43.7757  147.2525 O   0  0  0  0  0  0  0  0  0  0  0  0
  155.6834   44.2919  146.5825 C   0  0  1  0  0  0  0  0  0  0  0  0
  155.5041   43.9760  147.9645 O   0  0  0  0  0  0  0  0  0  0  0  0
  155.0209   45.6187  146.3498 C   0  0  2  0  0  0  0  0  0  0  0  0
  154.4447   45.6422  144.9845 N   0  0  0  0  0  0  0  0  0  0  0  0
  155.0451   46.1394  143.8891 C   0  0  0  0  0  0  0  0  0  0  0  0
  154.2394   46.0186  142.8068 N   0  0  0  0  0  0  0  0  0  0  0  0
  153.0949   45.4337  143.2027 C   0  0  0  0  0  0  0  0  0  0  0  0
  151.8273   45.0145  142.5597 C   0  0  0  0  0  0  0  0  0  0  0  0
  151.6477   45.2038  141.3326 O   0  0  0  0  0  0  0  0  0  0  0  0
  150.8925   44.4356  143.3327 N   0  0  0  0  0  0  0  0  0  0  0  0
  151.0895   44.2362  144.6497 C   0  0  0  0  0  0  0  0  0  0  0  0
  150.1159   43.6446  145.3773 N   0  0  0  0  0  0  0  0  0  0  0  0
  152.2207   44.5943  145.2985 N   0  0  0  0  0  0  0  0  0  0  0  0
  153.2400   45.1870  144.6407 C   0  0  0  0  0  0  0  0  0  0  0  0
  158.1638   42.1775  147.1375 P   0  0  2  0  0  0  0  0  0  0  0  0
  156.8526   41.4782  146.8735 O   0  0  0  0  0  0  0  0  0  0  0  0
  159.0193   41.8051  148.3339 O   0  0  0  0  0  0  0  0  0  0  0  0
  159.0503   42.0681  145.7915 O   0  0  0  0  0  0  0  0  0  0  0  0
  160.4485   42.3509  145.8304 C   0  0  0  0  0  0  0  0  0  0  0  0
  161.0406   42.6555  144.4509 C   0  0  1  0  0  0  0  0  0  0  0  0
  161.1347   41.4436  143.6990 O   0  0  0  0  0  0  0  0  0  0  0  0
  160.2361   43.6394  143.6043 C   0  0  1  0  0  0  0  0  0  0  0  0
  160.7068   44.9798  143.7389 O   0  0  0  0  0  0  0  0  0  0  0  0
  160.4546   43.1101  142.1993 C   0  0  1  0  0  0  0  0  0  0  0  0
  161.6498   43.6528  141.6312 O   0  0  0  0  0  0  0  0  0  0  0  0
  160.6644   41.6189  142.3598 C   0  0  2  0  0  0  0  0  0  0  0  0
  159.3652   40.9167  142.2144 N   0  0  0  0  0  0  0  0  0  0  0  0
  158.8340   40.0540  143.1033 C   0  0  0  0  0  0  0  0  0  0  0  0
  157.6233   39.5839  142.6929 N   0  0  0  0  0  0  0  0  0  0  0  0
  157.3556   40.1598  141.5101 C   0  0  0  0  0  0  0  0  0  0  0  0
  156.2542   40.1016  140.5156 C   0  0  0  0  0  0  0  0  0  0  0  0
  155.2352   39.3982  140.6859 O   0  0  0  0  0  0  0  0  0  0  0  0
  156.3722   40.8561  139.4217 N   0  0  0  0  0  0  0  0  0  0  0  0
  157.4430   41.6326  139.1955 C   0  0  0  0  0  0  0  0  0  0  0  0
  157.4638   42.3392  138.0555 N   0  0  0  0  0  0  0  0  0  0  0  0
  158.4896   41.7325  140.0482 N   0  0  0  0  0  0  0  0  0  0  0  0
  158.5062   41.0326  141.2020 C   0  0  0  0  0  0  0  0  0  0  0  0
  1  3  2  6  0  0  0
  1 32  1  0  0  0  0
  1  2  1  0  0  0  0
  1  4  1  0  0  0  0
  4  5  1  0  0  0  0
  6  5  1  6  0  0  0
  7  6  1  0  0  0  0
  8  6  1  0  0  0  0
  8 10  1  0  0  0  0
  8  9  1  1  0  0  0
 10 11  1  1  0  0  0
 12 13  1  6  0  0  0
 12  7  1  0  0  0  0
 12 10  1  0  0  0  0
 14 13  1  0  0  0  0
 15 16  1  0  0  0  0
 15 14  2  0  0  0  0
 16 23  2  0  0  0  0
 17 16  1  0  0  0  0
 17 19  1  0  0  0  0
 18 17  2  0  0  0  0
 19 20  2  0  0  0  0
 20 22  1  0  0  0  0
 20 21  1  0  0  0  0
 23 13  1  0  0  0  0
 23 22  1  0  0  0  0
 24 25  2  6  0  0  0
 24  9  1  0  0  0  0
 24 26  1  0  0  0  0
 27 28  1  0  0  0  0
 27 24  1  0  0  0  0
 29 30  1  6  0  0  0
 29 28  1  0  0  0  0
 31 32  1  6  0  0  0
 31 29  1  0  0  0  0
 33 34  1  1  0  0  0
 33 35  1  0  0  0  0
 33 31  1  0  0  0  0
 35 36  1  1  0  0  0
 35 30  1  0  0  0  0
 36 37  1  0  0  0  0
 38 37  2  0  0  0  0
 39 38  1  0  0  0  0
 40 41  2  0  0  0  0
 40 39  1  0  0  0  0
 42 40  1  0  0  0  0
 43 42  2  0  0  0  0
 43 45  1  0  0  0  0
 44 43  1  0  0  0  0
 45 46  1  0  0  0  0
 46 39  2  0  0  0  0
 46 36  1  0  0  0  0
M  END
>  <CHROM.1>
20.50607467,-11.34969137,157.15173121,43.56982524,143.89400483,-0.36942490
-0.16671475,1.02092005

>  <Name>
lig.pdb

>  <RI>
0

>  <Rbt.Current_Directory>
/home/itssahil/PROJECTS/Mol_Feturizer/New_Systems/rnas/4yb0

>  <Rbt.Executable>
rbdock ($Id: //depot/dev/client3/rdock/2013.1/src/exe/rbdock.cxx#4 $)

>  <Rbt.Library>
libRbt.so (2013.1, Build901 2013/11/27)

>  <Rbt.Parameter_File>
/export/apps/rDock/src/rDock_2013.1_src/data/scripts/dock_solv.prm

>  <Rbt.Receptor>
prm/pocket_docking_2.prm

>  <SCORE>
-53.5526

>  <SCORE.INTER>
-53.4555

>  <SCORE.INTER.CONST>
1

>  <SCORE.INTER.POLAR>
0

>  <SCORE.INTER.ROT>
2

>  <SCORE.INTER.SOLV>
31.4857

>  <SCORE.INTER.VDW>
-51.0656

>  <SCORE.INTER.norm>
-1.16208

>  <SCORE.INTRA>
-0.0971361

>  <SCORE.INTRA.DIHEDRAL>
-0.0171239

>  <SCORE.INTRA.DIHEDRAL.0>
4.74153

>  <SCORE.INTRA.POLAR>
0

>  <SCORE.INTRA.POLAR.0>
0

>  <SCORE.INTRA.REPUL>
0

>  <SCORE.INTRA.REPUL.0>
0

>  <SCORE.INTRA.SOLV>
0.000165014

>  <SCORE.INTRA.SOLV.lig_0>
-60.4375

>  <SCORE.INTRA.VDW>
-0.0886567

>  <SCORE.INTRA.VDW.0>
-1.83689

>  <SCORE.INTRA.norm>
-0.00211165

>  <SCORE.RESTR>
0

>  <SCORE.RESTR.CAVITY>
0

>  <SCORE.RESTR.norm>
0

>  <SCORE.SYSTEM>
0

>  <SCORE.SYSTEM.CONST>
0

>  <SCORE.SYSTEM.DIHEDRAL>
0

>  <SCORE.SYSTEM.SOLV>
0

>  <SCORE.SYSTEM.norm>
0

>  <SCORE.heavy>
46

>  <SCORE.norm>
-1.16419

>  <RMSD>
0.438

$$$$
lig.pdb
 OpenBabel11021811523D
libRbt.so/2013.1/901 2013/11/27
 46 52  0  0  0  0  0  0  0  0999 V2000
  159.6989   46.2139  143.4669 P   0  0  2  0  0  0  0  0  0  0  0  0
  160.3547   47.5448  143.7638 O   0  0  0  0  0  0  0  0  0  0  0  0
  159.2120   45.9980  142.0571 O   0  0  0  0  0  0  0  0  0  0  0  0
  158.4775   45.9269  144.4722 O   0  0  0  0  0  0  0  0  0  0  0  0
  158.2404   46.7475  145.6086 C   0  0  0  0  0  0  0  0  0  0  0  0
  157.3034   46.0406  146.5740 C   0  0  1  0  0  0  0  0  0  0  0  0
  156.0129   46.6183  146.4365 O   0  0  0  0  0  0  0  0  0  0  0  0
  157.1269   44.5447  146.3456 C   0  0  1  0  0  0  0  0  0  0  0  0
  157.8719   43.8221  147.3147 O   0  0  0  0  0  0  0  0  0  0  0  0
  155.6568   44.3177  146.6182 C   0  0  1  0  0  0  0  0  0  0  0  0
  155.4664   44.0171  148.0022 O   0  0  0  0  0  0  0  0  0  0  0  0
  154.9891   45.6378  146.3637 C   0  0  2  0  0  0  0  0  0  0  0  0
  154.4255   45.6420  144.9929 N   0  0  0  0  0  0  0  0  0  0  0  0
  155.0369   46.1217  143.8959 C   0  0  0  0  0  0  0  0  0  0  0  0
  154.2409   45.9862  142.8081 N   0  0  0  0  0  0  0  0  0  0  0  0
  153.0917   45.4092  143.2022 C   0  0  0  0  0  0  0  0  0  0  0  0
  151.8293   44.9827  142.5538 C   0  0  0  0  0  0  0  0  0  0  0  0
  151.6613   45.1538  141.3224 O   0  0  0  0  0  0  0  0  0  0  0  0
  150.8864   44.4169  143.3267 N   0  0  0  0  0  0  0  0  0  0  0  0
  151.0709   44.2368  144.6483 C   0  0  0  0  0  0  0  0  0  0  0  0
  150.0896   43.6578  145.3756 N   0  0  0  0  0  0  0  0  0  0  0  0
  152.1968   44.6026  145.3020 N   0  0  0  0  0  0  0  0  0  0  0  0
  153.2232   45.1837  144.6449 C   0  0  0  0  0  0  0  0  0  0  0  0
  158.1437   42.2242  147.2211 P   0  0  2  0  0  0  0  0  0  0  0  0
  156.8389   41.5143  146.9534 O   0  0  0  0  0  0  0  0  0  0  0  0
  158.9901   41.8708  148.4297 O   0  0  0  0  0  0  0  0  0  0  0  0
  159.0433   42.1039  145.8848 O   0  0  0  0  0  0  0  0  0  0  0  0
  160.4394   42.3951  145.9332 C   0  0  0  0  0  0  0  0  0  0  0  0
  161.0426   42.6867  144.5557 C   0  0  1  0  0  0  0  0  0  0  0  0
  161.1505   41.4667  143.8191 O   0  0  0  0  0  0  0  0  0  0  0  0
  160.2406   43.6560  143.6902 C   0  0  1  0  0  0  0  0  0  0  0  0
  160.7025   45.0005  143.8132 O   0  0  0  0  0  0  0  0  0  0  0  0
  160.4751   43.1114  142.2935 C   0  0  1  0  0  0  0  0  0  0  0  0
  161.6725   43.6542  141.7302 O   0  0  0  0  0  0  0  0  0  0  0  0
  160.6917   41.6234  142.4737 C   0  0  2  0  0  0  0  0  0  0  0  0
  159.3979   40.9122  142.3246 N   0  0  0  0  0  0  0  0  0  0  0  0
  158.8608   40.0611  143.2210 C   0  0  0  0  0  0  0  0  0  0  0  0
  157.6573   39.5780  142.8043 N   0  0  0  0  0  0  0  0  0  0  0  0
  157.4005   40.1336  141.6095 C   0  0  0  0  0  0  0  0  0  0  0  0
  156.3109   40.0537  140.6034 C   0  0  0  0  0  0  0  0  0  0  0  0
  155.2936   39.3478  140.7732 O   0  0  0  0  0  0  0  0  0  0  0  0
  156.4378   40.7912  139.4990 N   0  0  0  0  0  0  0  0  0  0  0  0
  157.5072   41.5696  139.2727 C   0  0  0  0  0  0  0  0  0  0  0  0
  157.5377   42.2580  138.1218 N   0  0  0  0  0  0  0  0  0  0  0  0
  158.5433   41.6886  140.1356 N   0  0  0  0  0  0  0  0  0  0  0  0
  158.5501   41.0074  141.3006 C   0  0  0  0  0  0  0  0  0  0  0  0
  1  3  2  6  0  0  0
  1 32  1  0  0  0  0
  1  2  1  0  0  0  0
  1  4  1  0  0  0  0
  4  5  1  0  0  0  0
  6  5  1  6  0  0  0
  7  6  1  0  0  0  0
  8  6  1  0  0  0  0
  8 10  1  0  0  0  0
  8  9  1  1  0  0  0
 10 11  1  1  0  0  0
 12 13  1  6  0  0  0
 12  7  1  0  0  0  0
 12 10  1  0  0  0  0
 14 13  1  0  0  0  0
 15 16  1  0  0  0  0
 15 14  2  0  0  0  0
 16 23  2  0  0  0  0
 17 16  1  0  0  0  0
 17 19  1  0  0  0  0
 18 17  2  0  0  0  0
 19 20  2  0  0  0  0
 20 22  1  0  0  0  0
 20 21  1  0  0  0  0
 23 13  1  0  0  0  0
 23 22  1  0  0  0  0
 24 25  2  6  0  0  0
 24  9  1  0  0  0  0
 24 26  1  0  0  0  0
 27 28  1  0  0  0  0
 27 24  1  0  0  0  0
 29 30  1  6  0  0  0
 29 28  1  0  0  0  0
 31 32  1  6  0  0  0
 31 29  1  0  0  0  0
 33 34  1  1  0  0  0
 33 35  1  0  0  0  0
 33 31  1  0  0  0  0
 35 36  1  1  0  0  0
 35 30  1  0  0  0  0
 36 37  1  0  0  0  0
 38 37  2  0  0  0  0
 39 38  1  0  0  0  0
 40 41  2  0  0  0  0
 40 39  1  0  0  0  0
 42 40  1  0  0  0  0
 43 42  2  0  0  0  0
 43 45  1  0  0  0  0
 44 43  1  0  0  0  0
 45 46  1  0  0  0  0
 46 39  2  0  0  0  0
 46 36  1  0  0  0  0
M  END
>  <CHROM.1>
20.96567007,-11.07384199,157.15379368,43.57345928,143.95186696,-0.36205983
-0.16823494,1.01091945

>  <Name>
lig.pdb

>  <RI>
0

>  <Rbt.Current_Directory>
/home/itssahil/PROJECTS/Mol_Feturizer/New_Systems/rnas/4yb0

>  <Rbt.Executable>
rbdock ($Id: //depot/dev/client3/rdock/2013.1/src/exe/rbdock.cxx#4 $)

>  <Rbt.Library>
libRbt.so (2013.1, Build901 2013/11/27)

>  <Rbt.Parameter_File>
/export/apps/rDock/src/rDock_2013.1_src/data/scripts/dock_solv.prm

>  <Rbt.Receptor>
prm/pocket_docking_5.prm

>  <SCORE>
-53.6161

>  <SCORE.INTER>
-53.5144

>  <SCORE.INTER.CONST>
1

>  <SCORE.INTER.POLAR>
0

>  <SCORE.INTER.ROT>
2

>  <SCORE.INTER.SOLV>
30.974

>  <SCORE.INTER.VDW>
-50.9342

>  <SCORE.INTER.norm>
-1.16336

>  <SCORE.INTRA>
-0.101763

>  <SCORE.INTRA.DIHEDRAL>
-0.0169084

>  <SCORE.INTRA.DIHEDRAL.0>
4.74153

>  <SCORE.INTRA.POLAR>
0

>  <SCORE.INTRA.POLAR.0>
0

>  <SCORE.INTRA.REPUL>
0

>  <SCORE.INTRA.REPUL.0>
0

>  <SCORE.INTRA.SOLV>
0.00209068

>  <SCORE.INTRA.SOLV.lig_0>
-60.4375

>  <SCORE.INTRA.VDW>
-0.0943543

>  <SCORE.INTRA.VDW.0>
-1.83689

>  <SCORE.INTRA.norm>
-0.00221224

>  <SCORE.RESTR>
0

>  <SCORE.RESTR.CAVITY>
0

>  <SCORE.RESTR.norm>
0

>  <SCORE.SYSTEM>
0

>  <SCORE.SYSTEM.CONST>
0

>  <SCORE.SYSTEM.DIHEDRAL>
0

>  <SCORE.SYSTEM.SOLV>
0

>  <SCORE.SYSTEM.norm>
0

>  <SCORE.heavy>
46

>  <SCORE.norm>
-1.16557

>  <RMSD>
0.439

$$$$
lig.pdb
 OpenBabel11021811523D
libRbt.so/2013.1/901 2013/11/27
 46 52  0  0  0  0  0  0  0  0999 V2000
  159.7266   46.2263  143.5118 P   0  0  2  0  0  0  0  0  0  0  0  0
  160.3817   47.5510  143.8370 O   0  0  0  0  0  0  0  0  0  0  0  0
  159.2582   46.0324  142.0926 O   0  0  0  0  0  0  0  0  0  0  0  0
  158.4910   45.9281  144.4963 O   0  0  0  0  0  0  0  0  0  0  0  0
  158.2407   46.7326  145.6413 C   0  0  0  0  0  0  0  0  0  0  0  0
  157.2890   46.0143  146.5836 C   0  0  1  0  0  0  0  0  0  0  0  0
  156.0020   46.5975  146.4372 O   0  0  0  0  0  0  0  0  0  0  0  0
  157.1118   44.5224  146.3310 C   0  0  1  0  0  0  0  0  0  0  0  0
  157.8418   43.7837  147.2993 O   0  0  0  0  0  0  0  0  0  0  0  0
  155.6376   44.2955  146.5805 C   0  0  1  0  0  0  0  0  0  0  0  0
  155.4278   43.9752  147.9572 O   0  0  0  0  0  0  0  0  0  0  0  0
  154.9768   45.6211  146.3363 C   0  0  2  0  0  0  0  0  0  0  0  0
  154.4316   45.6468  144.9583 N   0  0  0  0  0  0  0  0  0  0  0  0
  155.0502   46.1599  143.8806 C   0  0  0  0  0  0  0  0  0  0  0  0
  154.2712   46.0362  142.7792 N   0  0  0  0  0  0  0  0  0  0  0  0
  153.1259   45.4331  143.1446 C   0  0  0  0  0  0  0  0  0  0  0  0
  151.8792   45.0016  142.4698 C   0  0  0  0  0  0  0  0  0  0  0  0
  151.7252   45.1973  141.2401 O   0  0  0  0  0  0  0  0  0  0  0  0
  150.9349   44.4046  143.2170 N   0  0  0  0  0  0  0  0  0  0  0  0
  151.1044   44.1983  144.5367 C   0  0  0  0  0  0  0  0  0  0  0  0
  150.1226   43.5883  145.2376 N   0  0  0  0  0  0  0  0  0  0  0  0
  152.2155   44.5668  145.2139 N   0  0  0  0  0  0  0  0  0  0  0  0
  153.2415   45.1779  144.5838 C   0  0  0  0  0  0  0  0  0  0  0  0
  158.1108   42.1865  147.1860 P   0  0  2  0  0  0  0  0  0  0  0  0
  156.8078   41.4842  146.8904 O   0  0  0  0  0  0  0  0  0  0  0  0
  158.9399   41.8132  148.4005 O   0  0  0  0  0  0  0  0  0  0  0  0
  159.0279   42.0833  145.8603 O   0  0  0  0  0  0  0  0  0  0  0  0
  160.4240   42.3699  145.9317 C   0  0  0  0  0  0  0  0  0  0  0  0
  161.0465   42.6799  144.5668 C   0  0  1  0  0  0  0  0  0  0  0  0
  161.1612   41.4705  143.8139 O   0  0  0  0  0  0  0  0  0  0  0  0
  160.2587   43.6640  143.7049 C   0  0  1  0  0  0  0  0  0  0  0  0
  160.7223   45.0053  143.8538 O   0  0  0  0  0  0  0  0  0  0  0  0
  160.5106   43.1392  142.3037 C   0  0  1  0  0  0  0  0  0  0  0  0
  161.7168   43.6869  141.7645 O   0  0  0  0  0  0  0  0  0  0  0  0
  160.7210   41.6481  142.4649 C   0  0  2  0  0  0  0  0  0  0  0  0
  159.4274   40.9427  142.2881 N   0  0  0  0  0  0  0  0  0  0  0  0
  158.8755   40.0810  143.1652 C   0  0  0  0  0  0  0  0  0  0  0  0
  157.6767   39.6072  142.7251 N   0  0  0  0  0  0  0  0  0  0  0  0
  157.4381   40.1797  141.5345 C   0  0  0  0  0  0  0  0  0  0  0  0
  156.3626   40.1167  140.5123 C   0  0  0  0  0  0  0  0  0  0  0  0
  155.3411   39.4115  140.6583 O   0  0  0  0  0  0  0  0  0  0  0  0
  156.5068   40.8689  139.4201 N   0  0  0  0  0  0  0  0  0  0  0  0
  157.5814   41.6472  139.2194 C   0  0  0  0  0  0  0  0  0  0  0  0
  157.6298   42.3511  138.0786 N   0  0  0  0  0  0  0  0  0  0  0  0
  158.6056   41.7514  140.0982 N   0  0  0  0  0  0  0  0  0  0  0  0
  158.5943   41.0544  141.2538 C   0  0  0  0  0  0  0  0  0  0  0  0
  1  3  2  6  0  0  0
  1 32  1  0  0  0  0
  1  2  1  0  0  0  0
  1  4  1  0  0  0  0
  4  5  1  0  0  0  0
  6  5  1  6  0  0  0
  7  6  1  0  0  0  0
  8  6  1  0  0  0  0
  8 10  1  0  0  0  0
  8  9  1  1  0  0  0
 10 11  1  1  0  0  0
 12 13  1  6  0  0  0
 12  7  1  0  0  0  0
 12 10  1  0  0  0  0
 14 13  1  0  0  0  0
 15 16  1  0  0  0  0
 15 14  2  0  0  0  0
 16 23  2  0  0  0  0
 17 16  1  0  0  0  0
 17 19  1  0  0  0  0
 18 17  2  0  0  0  0
 19 20  2  0  0  0  0
 20 22  1  0  0  0  0
 20 21  1  0  0  0  0
 23 13  1  0  0  0  0
 23 22  1  0  0  0  0
 24 25  2  6  0  0  0
 24  9  1  0  0  0  0
 24 26  1  0  0  0  0
 27 28  1  0  0  0  0
 27 24  1  0  0  0  0
 29 30  1  6  0  0  0
 29 28  1  0  0  0  0
 31 32  1  6  0  0  0
 31 29  1  0  0  0  0
 33 34  1  1  0  0  0
 33 35  1  0  0  0  0
 33 31  1  0  0  0  0
 35 36  1  1  0  0  0
 35 30  1  0  0  0  0
 36 37  1  0  0  0  0
 38 37  2  0  0  0  0
 39 38  1  0  0  0  0
 40 41  2  0  0  0  0
 40 39  1  0  0  0  0
 42 40  1  0  0  0  0
 43 42  2  0  0  0  0
 43 45  1  0  0  0  0
 44 43  1  0  0  0  0
 45 46  1  0  0  0  0
 46 39  2  0  0  0  0
 46 36  1  0  0  0  0
M  END
>  <CHROM.1>
19.84419648,-11.01151134,157.17103492,43.58034573,143.92262325,-0.34983241
-0.17355338,1.02584077

>  <Name>
lig.pdb

>  <RI>
0

>  <Rbt.Current_Directory>
/home/itssahil/PROJECTS/Mol_Feturizer/New_Systems/rnas/4yb0

>  <Rbt.Executable>
rbdock ($Id: //depot/dev/client3/rdock/2013.1/src/exe/rbdock.cxx#4 $)

>  <Rbt.Library>
libRbt.so (2013.1, Build901 2013/11/27)

>  <Rbt.Parameter_File>
/export/apps/rDock/src/rDock_2013.1_src/data/scripts/dock_solv.prm

>  <Rbt.Receptor>
prm/pocket_docking_3.prm

>  <SCORE>
-53.616

>  <SCORE.INTER>
-53.5063

>  <SCORE.INTER.CONST>
1

>  <SCORE.INTER.POLAR>
0

>  <SCORE.INTER.ROT>
2

>  <SCORE.INTER.SOLV>
30.8598

>  <SCORE.INTER.VDW>
-50.8908

>  <SCORE.INTER.norm>
-1.16318

>  <SCORE.INTRA>
-0.109671

>  <SCORE.INTRA.DIHEDRAL>
-0.0154983

>  <SCORE.INTRA.DIHEDRAL.0>
4.74153

>  <SCORE.INTRA.POLAR>
0

>  <SCORE.INTRA.POLAR.0>
0

>  <SCORE.INTRA.REPUL>
0

>  <SCORE.INTRA.REPUL.0>
0

>  <SCORE.INTRA.SOLV>
0.00142873

>  <SCORE.INTRA.SOLV.lig_0>
-60.4375

>  <SCORE.INTRA.VDW>
-0.102636

>  <SCORE.INTRA.VDW.0>
-1.83689

>  <SCORE.INTRA.norm>
-0.00238416

>  <SCORE.RESTR>
0

>  <SCORE.RESTR.CAVITY>
0

>  <SCORE.RESTR.norm>
0

>  <SCORE.SYSTEM>
0

>  <SCORE.SYSTEM.CONST>
0

>  <SCORE.SYSTEM.DIHEDRAL>
0

>  <SCORE.SYSTEM.SOLV>
0

>  <SCORE.SYSTEM.norm>
0

>  <SCORE.heavy>
46

>  <SCORE.norm>
-1.16557

>  <RMSD>
0.440

$$$$
lig.pdb
 OpenBabel11021811523D
libRbt.so/2013.1/901 2013/11/27
 46 52  0  0  0  0  0  0  0  0999 V2000
  159.7124   46.1704  143.4831 P   0  0  2  0  0  0  0  0  0  0  0  0
  160.3845   47.4885  143.8002 O   0  0  0  0  0  0  0  0  0  0  0  0
  159.2288   45.9794  142.0687 O   0  0  0  0  0  0  0  0  0  0  0  0
  158.4829   45.8867  144.4795 O   0  0  0  0  0  0  0  0  0  0  0  0
  158.2518   46.6955  145.6256 C   0  0  0  0  0  0  0  0  0  0  0  0
  157.3013   45.9886  146.5777 C   0  0  1  0  0  0  0  0  0  0  0  0
  156.0192   46.5853  146.4424 O   0  0  0  0  0  0  0  0  0  0  0  0
  157.1059   44.4984  146.3290 C   0  0  1  0  0  0  0  0  0  0  0  0
  157.8371   43.7533  147.2917 O   0  0  0  0  0  0  0  0  0  0  0  0
  155.6318   44.2875  146.5925 C   0  0  1  0  0  0  0  0  0  0  0  0
  155.4314   43.9714  147.9716 O   0  0  0  0  0  0  0  0  0  0  0  0
  154.9828   45.6197  146.3525 C   0  0  2  0  0  0  0  0  0  0  0  0
  154.4253   45.6492  144.9796 N   0  0  0  0  0  0  0  0  0  0  0  0
  155.0203   46.1935  143.9039 C   0  0  0  0  0  0  0  0  0  0  0  0
  154.2354   46.0636  142.8074 N   0  0  0  0  0  0  0  0  0  0  0  0
  153.1101   45.4246  143.1740 C   0  0  0  0  0  0  0  0  0  0  0  0
  151.8697   44.9686  142.5037 C   0  0  0  0  0  0  0  0  0  0  0  0
  151.6998   45.1766  141.2782 O   0  0  0  0  0  0  0  0  0  0  0  0
  150.9485   44.3360  143.2505 N   0  0  0  0  0  0  0  0  0  0  0  0
  151.1350   44.1165  144.5658 C   0  0  0  0  0  0  0  0  0  0  0  0
  150.1762   43.4706  145.2664 N   0  0  0  0  0  0  0  0  0  0  0  0
  152.2415   44.5059  145.2386 N   0  0  0  0  0  0  0  0  0  0  0  0
  153.2450   45.1532  144.6086 C   0  0  0  0  0  0  0  0  0  0  0  0
  158.0880   42.1532  147.1783 P   0  0  2  0  0  0  0  0  0  0  0  0
  156.7750   41.4644  146.8959 O   0  0  0  0  0  0  0  0  0  0  0  0
  158.9243   41.7729  148.3857 O   0  0  0  0  0  0  0  0  0  0  0  0
  158.9917   42.0384  145.8443 O   0  0  0  0  0  0  0  0  0  0  0  0
  160.3914   42.3103  145.9024 C   0  0  0  0  0  0  0  0  0  0  0  0
  161.0044   42.6117  144.5313 C   0  0  1  0  0  0  0  0  0  0  0  0
  161.0992   41.4000  143.7793 O   0  0  0  0  0  0  0  0  0  0  0  0
  160.2190   43.6029  143.6752 C   0  0  1  0  0  0  0  0  0  0  0  0
  160.6983   44.9394  143.8178 O   0  0  0  0  0  0  0  0  0  0  0  0
  160.4523   43.0734  142.2726 C   0  0  1  0  0  0  0  0  0  0  0  0
  161.6593   43.6075  141.7214 O   0  0  0  0  0  0  0  0  0  0  0  0
  160.6484   41.5804  142.4341 C   0  0  2  0  0  0  0  0  0  0  0  0
  159.3459   40.8886  142.2703 N   0  0  0  0  0  0  0  0  0  0  0  0
  158.7864   40.0449  143.1602 C   0  0  0  0  0  0  0  0  0  0  0  0
  157.5806   39.5801  142.7300 N   0  0  0  0  0  0  0  0  0  0  0  0
  157.3451   40.1401  141.5328 C   0  0  0  0  0  0  0  0  0  0  0  0
  156.2656   40.0769  140.5148 C   0  0  0  0  0  0  0  0  0  0  0  0
  155.2361   39.3861  140.6729 O   0  0  0  0  0  0  0  0  0  0  0  0
  156.4154   40.8131  139.4124 N   0  0  0  0  0  0  0  0  0  0  0  0
  157.4987   41.5757  139.1984 C   0  0  0  0  0  0  0  0  0  0  0  0
  157.5520   42.2643  138.0484 N   0  0  0  0  0  0  0  0  0  0  0  0
  158.5269   41.6788  140.0727 N   0  0  0  0  0  0  0  0  0  0  0  0
  158.5108   40.9969  141.2372 C   0  0  0  0  0  0  0  0  0  0  0  0
  1  3  2  6  0  0  0
  1 32  1  0  0  0  0
  1  2  1  0  0  0  0
  1  4  1  0  0  0  0
  4  5  1  0  0  0  0
  6  5  1  6  0  0  0
  7  6  1  0  0  0  0
  8  6  1  0  0  0  0
  8 10  1  0  0  0  0
  8  9  1  1  0  0  0
 10 11  1  1  0  0  0
 12 13  1  6  0  0  0
 12  7  1  0  0  0  0
 12 10  1  0  0  0  0
 14 13  1  0  0  0  0
 15 16  1  0  0  0  0
 15 14  2  0  0  0  0
 16 23  2  0  0  0  0
 17 16  1  0  0  0  0
 17 19  1  0  0  0  0
 18 17  2  0  0  0  0
 19 20  2  0  0  0  0
 20 22  1  0  0  0  0
 20 21  1  0  0  0  0
 23 13  1  0  0  0  0
 23 22  1  0  0  0  0
 24 25  2  6  0  0  0
 24  9  1  0  0  0  0
 24 26  1  0  0  0  0
 27 28  1  0  0  0  0
 27 24  1  0  0  0  0
 29 30  1  6  0  0  0
 29 28  1  0  0  0  0
 31 32  1  6  0  0  0
 31 29  1  0  0  0  0
 33 34  1  1  0  0  0
 33 35  1  0  0  0  0
 33 31  1  0  0  0  0
 35 36  1  1  0  0  0
 35 30  1  0  0  0  0
 36 37  1  0  0  0  0
 38 37  2  0  0  0  0
 39 38  1  0  0  0  0
 40 41  2  0  0  0  0
 40 39  1  0  0  0  0
 42 40  1  0  0  0  0
 43 42  2  0  0  0  0
 43 45  1  0  0  0  0
 44 43  1  0  0  0  0
 45 46  1  0  0  0  0
 46 39  2  0  0  0  0
 46 36  1  0  0  0  0
M  END
>  <CHROM.1>
17.51188687,-10.26262867,157.13997747,43.53780842,143.91743019,-0.36554738
-0.16924130,1.01777662

>  <Name>
lig.pdb

>  <RI>
0

>  <Rbt.Current_Directory>
/home/itssahil/PROJECTS/Mol_Feturizer/New_Systems/rnas/4yb0

>  <Rbt.Executable>
rbdock ($Id: //depot/dev/client3/rdock/2013.1/src/exe/rbdock.cxx#4 $)

>  <Rbt.Library>
libRbt.so (2013.1, Build901 2013/11/27)

>  <Rbt.Parameter_File>
/export/apps/rDock/src/rDock_2013.1_src/data/scripts/dock_solv.prm

>  <Rbt.Receptor>
prm/pocket_docking_6.prm

>  <SCORE>
-53.529

>  <SCORE.INTER>
-53.438

>  <SCORE.INTER.CONST>
1

>  <SCORE.INTER.POLAR>
0

>  <SCORE.INTER.ROT>
2

>  <SCORE.INTER.SOLV>
31.1924

>  <SCORE.INTER.VDW>
-50.9561

>  <SCORE.INTER.norm>
-1.16169

>  <SCORE.INTRA>
-0.0909928

>  <SCORE.INTRA.DIHEDRAL>
-0.0104986

>  <SCORE.INTRA.DIHEDRAL.0>
4.74153

>  <SCORE.INTRA.POLAR>
0

>  <SCORE.INTRA.POLAR.0>
0

>  <SCORE.INTRA.REPUL>
0

>  <SCORE.INTRA.REPUL.0>
0

>  <SCORE.INTRA.SOLV>
0.00647472

>  <SCORE.INTRA.SOLV.lig_0>
-60.4375

>  <SCORE.INTRA.VDW>
-0.0889808

>  <SCORE.INTRA.VDW.0>
-1.83689

>  <SCORE.INTRA.norm>
-0.0019781

>  <SCORE.RESTR>
0

>  <SCORE.RESTR.CAVITY>
0

>  <SCORE.RESTR.norm>
0

>  <SCORE.SYSTEM>
0

>  <SCORE.SYSTEM.CONST>
0

>  <SCORE.SYSTEM.DIHEDRAL>
0

>  <SCORE.SYSTEM.SOLV>
0

>  <SCORE.SYSTEM.norm>
0

>  <SCORE.heavy>
46

>  <SCORE.norm>
-1.16367

>  <RMSD>
0.442

$$$$
lig.pdb
 OpenBabel11021811523D
libRbt.so/2013.1/901 2013/11/27
 46 52  0  0  0  0  0  0  0  0999 V2000
  159.8005   46.1432  143.4382 P   0  0  2  0  0  0  0  0  0  0  0  0
  160.4946   47.4515  143.7481 O   0  0  0  0  0  0  0  0  0  0  0  0
  159.3131   45.9529  142.0249 O   0  0  0  0  0  0  0  0  0  0  0  0
  158.5667   45.8854  144.4365 O   0  0  0  0  0  0  0  0  0  0  0  0
  158.3496   46.7040  145.5783 C   0  0  0  0  0  0  0  0  0  0  0  0
  157.3878   46.0182  146.5345 C   0  0  1  0  0  0  0  0  0  0  0  0
  156.1159   46.6355  146.3963 O   0  0  0  0  0  0  0  0  0  0  0  0
  157.1675   44.5301  146.2937 C   0  0  1  0  0  0  0  0  0  0  0  0
  157.8864   43.7780  147.2602 O   0  0  0  0  0  0  0  0  0  0  0  0
  155.6902   44.3453  146.5588 C   0  0  1  0  0  0  0  0  0  0  0  0
  155.4850   44.0399  147.9396 O   0  0  0  0  0  0  0  0  0  0  0  0
  155.0634   45.6868  146.3119 C   0  0  2  0  0  0  0  0  0  0  0  0
  154.5059   45.7184  144.9390 N   0  0  0  0  0  0  0  0  0  0  0  0
  155.1343   46.1921  143.8489 C   0  0  0  0  0  0  0  0  0  0  0  0
  154.3396   46.0875  142.7568 N   0  0  0  0  0  0  0  0  0  0  0  0
  153.1741   45.5372  143.1408 C   0  0  0  0  0  0  0  0  0  0  0  0
  151.9037   45.1498  142.4835 C   0  0  0  0  0  0  0  0  0  0  0  0
  151.7455   45.3367  141.2530 O   0  0  0  0  0  0  0  0  0  0  0  0
  150.9431   44.6018  143.2473 N   0  0  0  0  0  0  0  0  0  0  0  0
  151.1173   44.4047  144.5678 C   0  0  0  0  0  0  0  0  0  0  0  0
  150.1181   43.8449  145.2858 N   0  0  0  0  0  0  0  0  0  0  0  0
  152.2495   44.7349  145.2295 N   0  0  0  0  0  0  0  0  0  0  0  0
  153.2935   45.2950  144.5819 C   0  0  0  0  0  0  0  0  0  0  0  0
  158.1105   42.1734  147.1552 P   0  0  2  0  0  0  0  0  0  0  0  0
  156.7861   41.5052  146.8768 O   0  0  0  0  0  0  0  0  0  0  0  0
  158.9409   41.7855  148.3643 O   0  0  0  0  0  0  0  0  0  0  0  0
  159.0116   42.0364  145.8215 O   0  0  0  0  0  0  0  0  0  0  0  0
  160.4157   42.2851  145.8777 C   0  0  0  0  0  0  0  0  0  0  0  0
  161.0331   42.5690  144.5048 C   0  0  1  0  0  0  0  0  0  0  0  0
  161.1074   41.3520  143.7592 O   0  0  0  0  0  0  0  0  0  0  0  0
  160.2641   43.5686  143.6437 C   0  0  1  0  0  0  0  0  0  0  0  0
  160.7657   44.8976  143.7791 O   0  0  0  0  0  0  0  0  0  0  0  0
  160.4880   43.0279  142.2439 C   0  0  1  0  0  0  0  0  0  0  0  0
  161.7035   43.5388  141.6895 O   0  0  0  0  0  0  0  0  0  0  0  0
  160.6592   41.5327  142.4133 C   0  0  2  0  0  0  0  0  0  0  0  0
  159.3452   40.8619  142.2536 N   0  0  0  0  0  0  0  0  0  0  0  0
  158.7778   40.0225  143.1424 C   0  0  0  0  0  0  0  0  0  0  0  0
  157.5625   39.5785  142.7169 N   0  0  0  0  0  0  0  0  0  0  0  0
  157.3289   40.1481  141.5239 C   0  0  0  0  0  0  0  0  0  0  0  0
  156.2428   40.1067  140.5118 C   0  0  0  0  0  0  0  0  0  0  0  0
  155.2037   39.4311  140.6725 O   0  0  0  0  0  0  0  0  0  0  0  0
  156.3977   40.8461  139.4122 N   0  0  0  0  0  0  0  0  0  0  0  0
  157.4914   41.5930  139.1958 C   0  0  0  0  0  0  0  0  0  0  0  0
  157.5488   42.2864  138.0490 N   0  0  0  0  0  0  0  0  0  0  0  0
  158.5260   41.6758  140.0647 N   0  0  0  0  0  0  0  0  0  0  0  0
  158.5060   40.9883  141.2258 C   0  0  0  0  0  0  0  0  0  0  0  0
  1  3  2  6  0  0  0
  1 32  1  0  0  0  0
  1  2  1  0  0  0  0
  1  4  1  0  0  0  0
  4  5  1  0  0  0  0
  6  5  1  6  0  0  0
  7  6  1  0  0  0  0
  8  6  1  0  0  0  0
  8 10  1  0  0  0  0
  8  9  1  1  0  0  0
 10 11  1  1  0  0  0
 12 13  1  6  0  0  0
 12  7  1  0  0  0  0
 12 10  1  0  0  0  0
 14 13  1  0  0  0  0
 15 16  1  0  0  0  0
 15 14  2  0  0  0  0
 16 23  2  0  0  0  0
 17 16  1  0  0  0  0
 17 19  1  0  0  0  0
 18 17  2  0  0  0  0
 19 20  2  0  0  0  0
 20 22  1  0  0  0  0
 20 21  1  0  0  0  0
 23 13  1  0  0  0  0
 23 22  1  0  0  0  0
 24 25  2  6  0  0  0
 24  9  1  0  0  0  0
 24 26  1  0  0  0  0
 27 28  1  0  0  0  0
 27 24  1  0  0  0  0
 29 30  1  6  0  0  0
 29 28  1  0  0  0  0
 31 32  1  6  0  0  0
 31 29  1  0  0  0  0
 33 34  1  1  0  0  0
 33 35  1  0  0  0  0
 33 31  1  0  0  0  0
 35 36  1  1  0  0  0
 35 30  1  0  0  0  0
 36 37  1  0  0  0  0
 38 37  2  0  0  0  0
 39 38  1  0  0  0  0
 40 41  2  0  0  0  0
 40 39  1  0  0  0  0
 42 40  1  0  0  0  0
 43 42  2  0  0  0  0
 43 45  1  0  0  0  0
 44 43  1  0  0  0  0
 45 46  1  0  0  0  0
 46 39  2  0  0  0  0
 46 36  1  0  0  0  0
M  END
>  <CHROM.1>
20.72517897,-10.93290319,157.17602639,43.57504391,143.89206947,-0.37546636
-0.19490494,1.01580157

>  <Name>
lig.pdb

>  <RI>
0

>  <Rbt.Current_Directory>
/home/itssahil/PROJECTS/Mol_Feturizer/New_Systems/rnas/4yb0

>  <Rbt.Executable>
rbdock ($Id: //depot/dev/client3/rdock/2013.1/src/exe/rbdock.cxx#4 $)

>  <Rbt.Library>
libRbt.so (2013.1, Build901 2013/11/27)

>  <Rbt.Parameter_File>
/export/apps/rDock/src/rDock_2013.1_src/data/scripts/dock_solv.prm

>  <Rbt.Receptor>
prm/pocket_docking_3.prm

>  <SCORE>
-53.5307

>  <SCORE.INTER>
-53.4303

>  <SCORE.INTER.CONST>
1

>  <SCORE.INTER.POLAR>
0

>  <SCORE.INTER.ROT>
2

>  <SCORE.INTER.SOLV>
31.6607

>  <SCORE.INTER.VDW>
-51.1071

>  <SCORE.INTER.norm>
-1.16153

>  <SCORE.INTRA>
-0.100408

>  <SCORE.INTRA.DIHEDRAL>
-0.0162868

>  <SCORE.INTRA.DIHEDRAL.0>
4.74153

>  <SCORE.INTRA.POLAR>
0

>  <SCORE.INTRA.POLAR.0>
0

>  <SCORE.INTRA.REPUL>
0

>  <SCORE.INTRA.REPUL.0>
0

>  <SCORE.INTRA.SOLV>
0.00230243

>  <SCORE.INTRA.SOLV.lig_0>
-60.4375

>  <SCORE.INTRA.VDW>
-0.0934156

>  <SCORE.INTRA.VDW.0>
-1.83689

>  <SCORE.INTRA.norm>
-0.00218278

>  <SCORE.RESTR>
0

>  <SCORE.RESTR.CAVITY>
0

>  <SCORE.RESTR.norm>
0

>  <SCORE.SYSTEM>
0

>  <SCORE.SYSTEM.CONST>
0

>  <SCORE.SYSTEM.DIHEDRAL>
0

>  <SCORE.SYSTEM.SOLV>
0

>  <SCORE.SYSTEM.norm>
0

>  <SCORE.heavy>
46

>  <SCORE.norm>
-1.16371

>  <RMSD>
0.443

$$$$
lig.pdb
 OpenBabel11021811523D
libRbt.so/2013.1/901 2013/11/27
 46 52  0  0  0  0  0  0  0  0999 V2000
  159.6995   46.2617  143.4958 P   0  0  2  0  0  0  0  0  0  0  0  0
  160.3453   47.5939  143.8082 O   0  0  0  0  0  0  0  0  0  0  0  0
  159.2303   46.0518  142.0791 O   0  0  0  0  0  0  0  0  0  0  0  0
  158.4676   45.9630  144.4849 O   0  0  0  0  0  0  0  0  0  0  0  0
  158.2131   46.7758  145.6231 C   0  0  0  0  0  0  0  0  0  0  0  0
  157.2681   46.0588  146.5732 C   0  0  1  0  0  0  0  0  0  0  0  0
  155.9766   46.6312  146.4237 O   0  0  0  0  0  0  0  0  0  0  0  0
  157.1015   44.5635  146.3340 C   0  0  1  0  0  0  0  0  0  0  0  0
  157.8384   43.8387  147.3077 O   0  0  0  0  0  0  0  0  0  0  0  0
  155.6294   44.3279  146.5878 C   0  0  1  0  0  0  0  0  0  0  0  0
  155.4240   44.0183  147.9677 O   0  0  0  0  0  0  0  0  0  0  0  0
  154.9585   45.6464  146.3331 C   0  0  2  0  0  0  0  0  0  0  0  0
  154.4111   45.6559  144.9557 N   0  0  0  0  0  0  0  0  0  0  0  0
  155.0309   46.1498  143.8698 C   0  0  0  0  0  0  0  0  0  0  0  0
  154.2492   46.0153  142.7716 N   0  0  0  0  0  0  0  0  0  0  0  0
  153.1009   45.4247  143.1475 C   0  0  0  0  0  0  0  0  0  0  0  0
  151.8502   44.9915  142.4809 C   0  0  0  0  0  0  0  0  0  0  0  0
  151.6953   45.1707  141.2489 O   0  0  0  0  0  0  0  0  0  0  0  0
  150.9036   44.4111  143.2381 N   0  0  0  0  0  0  0  0  0  0  0  0
  151.0741   44.2225  144.5604 C   0  0  0  0  0  0  0  0  0  0  0  0
  150.0897   43.6288  145.2715 N   0  0  0  0  0  0  0  0  0  0  0  0
  152.1887   44.5936  145.2303 N   0  0  0  0  0  0  0  0  0  0  0  0
  153.2173   45.1893  144.5900 C   0  0  0  0  0  0  0  0  0  0  0  0
  158.1190   42.2427  147.2080 P   0  0  2  0  0  0  0  0  0  0  0  0
  156.8209   41.5282  146.9206 O   0  0  0  0  0  0  0  0  0  0  0  0
  158.9527   41.8862  148.4245 O   0  0  0  0  0  0  0  0  0  0  0  0
  159.0349   42.1345  145.8818 O   0  0  0  0  0  0  0  0  0  0  0  0
  160.4290   42.4320  145.9485 C   0  0  0  0  0  0  0  0  0  0  0  0
  161.0471   42.7346  144.5799 C   0  0  1  0  0  0  0  0  0  0  0  0
  161.1695   41.5194  143.8376 O   0  0  0  0  0  0  0  0  0  0  0  0
  160.2507   43.7052  143.7106 C   0  0  1  0  0  0  0  0  0  0  0  0
  160.7046   45.0511  143.8470 O   0  0  0  0  0  0  0  0  0  0  0  0
  160.5043   43.1699  142.3137 C   0  0  1  0  0  0  0  0  0  0  0  0
  161.7057   43.7216  141.7678 O   0  0  0  0  0  0  0  0  0  0  0  0
  160.7260   41.6819  142.4878 C   0  0  2  0  0  0  0  0  0  0  0  0
  159.4374   40.9654  142.3192 N   0  0  0  0  0  0  0  0  0  0  0  0
  158.9303   40.0493  143.1678 C   0  0  0  0  0  0  0  0  0  0  0  0
  157.7235   39.5796  142.7456 N   0  0  0  0  0  0  0  0  0  0  0  0
  157.4336   40.2105  141.5966 C   0  0  0  0  0  0  0  0  0  0  0  0
  156.3228   40.1839  140.6112 C   0  0  0  0  0  0  0  0  0  0  0  0
  155.3177   39.4550  140.7551 O   0  0  0  0  0  0  0  0  0  0  0  0
  156.4163   40.9953  139.5564 N   0  0  0  0  0  0  0  0  0  0  0  0
  157.4713   41.8010  139.3599 C   0  0  0  0  0  0  0  0  0  0  0  0
  157.4680   42.5652  138.2575 N   0  0  0  0  0  0  0  0  0  0  0  0
  158.5250   41.8754  140.2063 N   0  0  0  0  0  0  0  0  0  0  0  0
  158.5658   41.1179  141.3225 C   0  0  0  0  0  0  0  0  0  0  0  0
  1  3  2  6  0  0  0
  1 32  1  0  0  0  0
  1  2  1  0  0  0  0
  1  4  1  0  0  0  0
  4  5  1  0  0  0  0
  6  5  1  6  0  0  0
  7  6  1  0  0  0  0
  8  6  1  0  0  0  0
  8 10  1  0  0  0  0
  8  9  1  1  0  0  0
 10 11  1  1  0  0  0
 12 13  1  6  0  0  0
 12  7  1  0  0  0  0
 12 10  1  0  0  0  0
 14 13  1  0  0  0  0
 15 16  1  0  0  0  0
 15 14  2  0  0  0  0
 16 23  2  0  0  0  0
 17 16  1  0  0  0  0
 17 19  1  0  0  0  0
 18 17  2  0  0  0  0
 19 20  2  0  0  0  0
 20 22  1  0  0  0  0
 20 21  1  0  0  0  0
 23 13  1  0  0  0  0
 23 22  1  0  0  0  0
 24 25  2  6  0  0  0
 24  9  1  0  0  0  0
 24 26  1  0  0  0  0
 27 28  1  0  0  0  0
 27 24  1  0  0  0  0
 29 30  1  6  0  0  0
 29 28  1  0  0  0  0
 31 32  1  6  0  0  0
 31 29  1  0  0  0  0
 33 34  1  1  0  0  0
 33 35  1  0  0  0  0
 33 31  1  0  0  0  0
 35 36  1  1  0  0  0
 35 30  1  0  0  0  0
 36 37  1  0  0  0  0
 38 37  2  0  0  0  0
 39 38  1  0  0  0  0
 40 41  2  0  0  0  0
 40 39  1  0  0  0  0
 42 40  1  0  0  0  0
 43 42  2  0  0  0  0
 43 45  1  0  0  0  0
 44 43  1  0  0  0  0
 45 46  1  0  0  0  0
 46 39  2  0  0  0  0
 46 36  1  0  0  0  0
M  END
>  <CHROM.1>
20.68530873,-15.10909272,157.15174394,43.62108781,143.94558040,-0.31284869
-0.17225516,1.02535310

>  <Name>
lig.pdb

>  <RI>
0

>  <Rbt.Current_Directory>
/home/itssahil/PROJECTS/Mol_Feturizer/New_Systems/rnas/4yb0

>  <Rbt.Executable>
rbdock ($Id: //depot/dev/client3/rdock/2013.1/src/exe/rbdock.cxx#4 $)

>  <Rbt.Library>
libRbt.so (2013.1, Build901 2013/11/27)

>  <Rbt.Parameter_File>
/export/apps/rDock/src/rDock_2013.1_src/data/scripts/dock_solv.prm

>  <Rbt.Receptor>
prm/pocket_docking_3.prm

>  <SCORE>
-53.549

>  <SCORE.INTER>
-53.4699

>  <SCORE.INTER.CONST>
1

>  <SCORE.INTER.POLAR>
0

>  <SCORE.INTER.ROT>
2

>  <SCORE.INTER.SOLV>
30.6623

>  <SCORE.INTER.VDW>
-50.8007

>  <SCORE.INTER.norm>
-1.16239

>  <SCORE.INTRA>
-0.0790252

>  <SCORE.INTRA.DIHEDRAL>
-0.0262131

>  <SCORE.INTRA.DIHEDRAL.0>
4.74153

>  <SCORE.INTRA.POLAR>
0

>  <SCORE.INTRA.POLAR.0>
0

>  <SCORE.INTRA.REPUL>
0

>  <SCORE.INTRA.REPUL.0>
0

>  <SCORE.INTRA.SOLV>
-0.0105425

>  <SCORE.INTRA.SOLV.lig_0>
-60.4375

>  <SCORE.INTRA.VDW>
-0.0606474

>  <SCORE.INTRA.VDW.0>
-1.83689

>  <SCORE.INTRA.norm>
-0.00171794

>  <SCORE.RESTR>
0

>  <SCORE.RESTR.CAVITY>
0

>  <SCORE.RESTR.norm>
0

>  <SCORE.SYSTEM>
0

>  <SCORE.SYSTEM.CONST>
0

>  <SCORE.SYSTEM.DIHEDRAL>
0

>  <SCORE.SYSTEM.SOLV>
0

>  <SCORE.SYSTEM.norm>
0

>  <SCORE.heavy>
46

>  <SCORE.norm>
-1.16411

>  <RMSD>
0.443

$$$$
lig.pdb
 OpenBabel11021811523D
libRbt.so/2013.1/901 2013/11/27
 46 52  0  0  0  0  0  0  0  0999 V2000
  159.6948   46.2340  143.4561 P   0  0  2  0  0  0  0  0  0  0  0  0
  160.3452   47.5659  143.7603 O   0  0  0  0  0  0  0  0  0  0  0  0
  159.2102   46.0232  142.0447 O   0  0  0  0  0  0  0  0  0  0  0  0
  158.4733   45.9374  144.4586 O   0  0  0  0  0  0  0  0  0  0  0  0
  158.2318   46.7515  145.5988 C   0  0  0  0  0  0  0  0  0  0  0  0
  157.2964   46.0363  146.5596 C   0  0  1  0  0  0  0  0  0  0  0  0
  156.0039   46.6099  146.4235 O   0  0  0  0  0  0  0  0  0  0  0  0
  157.1258   44.5410  146.3236 C   0  0  1  0  0  0  0  0  0  0  0  0
  157.8724   43.8164  147.2900 O   0  0  0  0  0  0  0  0  0  0  0  0
  155.6563   44.3071  146.5934 C   0  0  1  0  0  0  0  0  0  0  0  0
  155.4654   43.9989  147.9757 O   0  0  0  0  0  0  0  0  0  0  0  0
  154.9839   45.6260  146.3447 C   0  0  2  0  0  0  0  0  0  0  0  0
  154.4218   45.6348  144.9733 N   0  0  0  0  0  0  0  0  0  0  0  0
  155.0364   46.1137  143.8777 C   0  0  0  0  0  0  0  0  0  0  0  0
  154.2411   45.9834  142.7889 N   0  0  0  0  0  0  0  0  0  0  0  0
  153.0890   45.4106  143.1807 C   0  0  0  0  0  0  0  0  0  0  0  0
  151.8255   44.9905  142.5303 C   0  0  0  0  0  0  0  0  0  0  0  0
  151.6596   45.1645  141.2989 O   0  0  0  0  0  0  0  0  0  0  0  0
  150.8794   44.4275  143.3012 N   0  0  0  0  0  0  0  0  0  0  0  0
  151.0617   44.2445  144.6226 C   0  0  0  0  0  0  0  0  0  0  0  0
  150.0771   43.6684  145.3480 N   0  0  0  0  0  0  0  0  0  0  0  0
  152.1884   44.6044  145.2783 N   0  0  0  0  0  0  0  0  0  0  0  0
  153.2180   45.1822  144.6232 C   0  0  0  0  0  0  0  0  0  0  0  0
  158.1504   42.2199  147.1888 P   0  0  2  0  0  0  0  0  0  0  0  0
  156.8485   41.5065  146.9161 O   0  0  0  0  0  0  0  0  0  0  0  0
  158.9967   41.8638  148.3966 O   0  0  0  0  0  0  0  0  0  0  0  0
  159.0519   42.1096  145.8529 O   0  0  0  0  0  0  0  0  0  0  0  0
  160.4468   42.4058  145.9044 C   0  0  0  0  0  0  0  0  0  0  0  0
  161.0505   42.7065  144.5290 C   0  0  1  0  0  0  0  0  0  0  0  0
  161.1638   41.4905  143.7865 O   0  0  0  0  0  0  0  0  0  0  0  0
  160.2458   43.6771  143.6674 C   0  0  1  0  0  0  0  0  0  0  0  0
  160.7025   45.0227  143.7976 O   0  0  0  0  0  0  0  0  0  0  0  0
  160.4839   43.1403  142.2683 C   0  0  1  0  0  0  0  0  0  0  0  0
  161.6799   43.6903  141.7090 O   0  0  0  0  0  0  0  0  0  0  0  0
  160.7059   41.6522  142.4414 C   0  0  2  0  0  0  0  0  0  0  0  0
  159.4149   40.9369  142.2873 N   0  0  0  0  0  0  0  0  0  0  0  0
  158.8920   40.0601  143.1673 C   0  0  0  0  0  0  0  0  0  0  0  0
  157.6873   39.5802  142.7505 N   0  0  0  0  0  0  0  0  0  0  0  0
  157.4150   40.1641  141.5727 C   0  0  0  0  0  0  0  0  0  0  0  0
  156.3159   40.1027  140.5759 C   0  0  0  0  0  0  0  0  0  0  0  0
  155.3046   39.3864  140.7380 O   0  0  0  0  0  0  0  0  0  0  0  0
  156.4271   40.8687  139.4893 N   0  0  0  0  0  0  0  0  0  0  0  0
  157.4895   41.6592  139.2720 C   0  0  0  0  0  0  0  0  0  0  0  0
  157.5041   42.3765  138.1386 N   0  0  0  0  0  0  0  0  0  0  0  0
  158.5335   41.7629  140.1273 N   0  0  0  0  0  0  0  0  0  0  0  0
  158.5562   41.0526  141.2746 C   0  0  0  0  0  0  0  0  0  0  0  0
  1  3  2  6  0  0  0
  1 32  1  0  0  0  0
  1  2  1  0  0  0  0
  1  4  1  0  0  0  0
  4  5  1  0  0  0  0
  6  5  1  6  0  0  0
  7  6  1  0  0  0  0
  8  6  1  0  0  0  0
  8 10  1  0  0  0  0
  8  9  1  1  0  0  0
 10 11  1  1  0  0  0
 12 13  1  6  0  0  0
 12  7  1  0  0  0  0
 12 10  1  0  0  0  0
 14 13  1  0  0  0  0
 15 16  1  0  0  0  0
 15 14  2  0  0  0  0
 16 23  2  0  0  0  0
 17 16  1  0  0  0  0
 17 19  1  0  0  0  0
 18 17  2  0  0  0  0
 19 20  2  0  0  0  0
 20 22  1  0  0  0  0
 20 21  1  0  0  0  0
 23 13  1  0  0  0  0
 23 22  1  0  0  0  0
 24 25  2  6  0  0  0
 24  9  1  0  0  0  0
 24 26  1  0  0  0  0
 27 28  1  0  0  0  0
 27 24  1  0  0  0  0
 29 30  1  6  0  0  0
 29 28  1  0  0  0  0
 31 32  1  6  0  0  0
 31 29  1  0  0  0  0
 33 34  1  1  0  0  0
 33 35  1  0  0  0  0
 33 31  1  0  0  0  0
 35 36  1  1  0  0  0
 35 30  1  0  0  0  0
 36 37  1  0  0  0  0
 38 37  2  0  0  0  0
 39 38  1  0  0  0  0
 40 41  2  0  0  0  0
 40 39  1  0  0  0  0
 42 40  1  0  0  0  0
 43 42  2  0  0  0  0
 43 45  1  0  0  0  0
 44 43  1  0  0  0  0
 45 46  1  0  0  0  0
 46 39  2  0  0  0  0
 46 36  1  0  0  0  0
M  END
>  <CHROM.1>
21.46099539,-12.40893831,157.15458231,43.58952526,143.92900948,-0.34817039
-0.16841375,1.01941163

>  <Name>
lig.pdb

>  <RI>
0

>  <Rbt.Current_Directory>
/home/itssahil/PROJECTS/Mol_Feturizer/New_Systems/rnas/4yb0

>  <Rbt.Executable>
rbdock ($Id: //depot/dev/client3/rdock/2013.1/src/exe/rbdock.cxx#4 $)

>  <Rbt.Library>
libRbt.so (2013.1, Build901 2013/11/27)

>  <Rbt.Parameter_File>
/export/apps/rDock/src/rDock_2013.1_src/data/scripts/dock_solv.prm

>  <Rbt.Receptor>
prm/pocket_docking_3.prm

>  <SCORE>
-53.547

>  <SCORE.INTER>
-53.4472

>  <SCORE.INTER.CONST>
1

>  <SCORE.INTER.POLAR>
0

>  <SCORE.INTER.ROT>
2

>  <SCORE.INTER.SOLV>
31.0386

>  <SCORE.INTER.VDW>
-50.911

>  <SCORE.INTER.norm>
-1.16189

>  <SCORE.INTRA>
-0.0998894

>  <SCORE.INTRA.DIHEDRAL>
-0.0207834

>  <SCORE.INTRA.DIHEDRAL.0>
4.74153

>  <SCORE.INTRA.POLAR>
0

>  <SCORE.INTRA.POLAR.0>
0

>  <SCORE.INTRA.REPUL>
0

>  <SCORE.INTRA.REPUL.0>
0

>  <SCORE.INTRA.SOLV>
-0.00195853

>  <SCORE.INTRA.SOLV.lig_0>
-60.4375

>  <SCORE.INTRA.VDW>
-0.0885185

>  <SCORE.INTRA.VDW.0>
-1.83689

>  <SCORE.INTRA.norm>
-0.00217151

>  <SCORE.RESTR>
0

>  <SCORE.RESTR.CAVITY>
0

>  <SCORE.RESTR.norm>
0

>  <SCORE.SYSTEM>
0

>  <SCORE.SYSTEM.CONST>
0

>  <SCORE.SYSTEM.DIHEDRAL>
0

>  <SCORE.SYSTEM.SOLV>
0

>  <SCORE.SYSTEM.norm>
0

>  <SCORE.heavy>
46

>  <SCORE.norm>
-1.16407

>  <RMSD>
0.443

$$$$
lig.pdb
 OpenBabel11021811523D
libRbt.so/2013.1/901 2013/11/27
 46 52  0  0  0  0  0  0  0  0999 V2000
  159.7583   46.1476  143.4250 P   0  0  2  0  0  0  0  0  0  0  0  0
  160.4367   47.4647  143.7323 O   0  0  0  0  0  0  0  0  0  0  0  0
  159.2672   45.9514  142.0138 O   0  0  0  0  0  0  0  0  0  0  0  0
  158.5325   45.8734  144.4286 O   0  0  0  0  0  0  0  0  0  0  0  0
  158.3098   46.6888  145.5717 C   0  0  0  0  0  0  0  0  0  0  0  0
  157.3612   45.9902  146.5319 C   0  0  1  0  0  0  0  0  0  0  0  0
  156.0808   46.5909  146.3996 O   0  0  0  0  0  0  0  0  0  0  0  0
  157.1592   44.4995  146.2915 C   0  0  1  0  0  0  0  0  0  0  0  0
  157.8921   43.7565  147.2545 O   0  0  0  0  0  0  0  0  0  0  0  0
  155.6856   44.2953  146.5631 C   0  0  1  0  0  0  0  0  0  0  0  0
  155.4906   43.9869  147.9447 O   0  0  0  0  0  0  0  0  0  0  0  0
  155.0404   45.6287  146.3195 C   0  0  2  0  0  0  0  0  0  0  0  0
  154.4764   45.6534  144.9491 N   0  0  0  0  0  0  0  0  0  0  0  0
  155.0908   46.1422  143.8578 C   0  0  0  0  0  0  0  0  0  0  0  0
  154.2936   46.0255  142.7687 N   0  0  0  0  0  0  0  0  0  0  0  0
  153.1405   45.4517  143.1561 C   0  0  0  0  0  0  0  0  0  0  0  0
  151.8750   45.0418  142.5031 C   0  0  0  0  0  0  0  0  0  0  0  0
  151.7079   45.2292  141.2739 O   0  0  0  0  0  0  0  0  0  0  0  0
  150.9284   44.4733  143.2694 N   0  0  0  0  0  0  0  0  0  0  0  0
  151.1121   44.2758  144.5885 C   0  0  0  0  0  0  0  0  0  0  0  0
  150.1270   43.6948  145.3091 N   0  0  0  0  0  0  0  0  0  0  0  0
  152.2407   44.6258  145.2463 N   0  0  0  0  0  0  0  0  0  0  0  0
  153.2709   45.2078  144.5960 C   0  0  0  0  0  0  0  0  0  0  0  0
  158.1367   42.1550  147.1479 P   0  0  2  0  0  0  0  0  0  0  0  0
  156.8198   41.4696  146.8752 O   0  0  0  0  0  0  0  0  0  0  0  0
  158.9773   41.7775  148.3532 O   0  0  0  0  0  0  0  0  0  0  0  0
  159.0335   42.0301  145.8103 O   0  0  0  0  0  0  0  0  0  0  0  0
  160.4345   42.2971  145.8603 C   0  0  0  0  0  0  0  0  0  0  0  0
  161.0421   42.5894  144.4848 C   0  0  1  0  0  0  0  0  0  0  0  0
  161.1289   41.3736  143.7384 O   0  0  0  0  0  0  0  0  0  0  0  0
  160.2563   43.5792  143.6275 C   0  0  1  0  0  0  0  0  0  0  0  0
  160.7411   44.9146  143.7611 O   0  0  0  0  0  0  0  0  0  0  0  0
  160.4810   43.0418  142.2265 C   0  0  1  0  0  0  0  0  0  0  0  0
  161.6873   43.5687  141.6669 O   0  0  0  0  0  0  0  0  0  0  0  0
  160.6723   41.5490  142.3946 C   0  0  2  0  0  0  0  0  0  0  0  0
  159.3665   40.8611  142.2404 N   0  0  0  0  0  0  0  0  0  0  0  0
  158.8142   40.0139  143.1313 C   0  0  0  0  0  0  0  0  0  0  0  0
  157.6029   39.5543  142.7110 N   0  0  0  0  0  0  0  0  0  0  0  0
  157.3564   40.1215  141.5195 C   0  0  0  0  0  0  0  0  0  0  0  0
  156.2663   40.0667  140.5124 C   0  0  0  0  0  0  0  0  0  0  0  0
  155.2368   39.3774  140.6773 O   0  0  0  0  0  0  0  0  0  0  0  0
  156.4065   40.8087  139.4126 N   0  0  0  0  0  0  0  0  0  0  0  0
  157.4893   41.5699  139.1917 C   0  0  0  0  0  0  0  0  0  0  0  0
  157.5324   42.2648  138.0451 N   0  0  0  0  0  0  0  0  0  0  0  0
  158.5268   41.6657  140.0559 N   0  0  0  0  0  0  0  0  0  0  0  0
  158.5211   40.9773  141.2166 C   0  0  0  0  0  0  0  0  0  0  0  0
  1  3  2  6  0  0  0
  1 32  1  0  0  0  0
  1  2  1  0  0  0  0
  1  4  1  0  0  0  0
  4  5  1  0  0  0  0
  6  5  1  6  0  0  0
  7  6  1  0  0  0  0
  8  6  1  0  0  0  0
  8 10  1  0  0  0  0
  8  9  1  1  0  0  0
 10 11  1  1  0  0  0
 12 13  1  6  0  0  0
 12  7  1  0  0  0  0
 12 10  1  0  0  0  0
 14 13  1  0  0  0  0
 15 16  1  0  0  0  0
 15 14  2  0  0  0  0
 16 23  2  0  0  0  0
 17 16  1  0  0  0  0
 17 19  1  0  0  0  0
 18 17  2  0  0  0  0
 19 20  2  0  0  0  0
 20 22  1  0  0  0  0
 20 21  1  0  0  0  0
 23 13  1  0  0  0  0
 23 22  1  0  0  0  0
 24 25  2  6  0  0  0
 24  9  1  0  0  0  0
 24 26  1  0  0  0  0
 27 28  1  0  0  0  0
 27 24  1  0  0  0  0
 29 30  1  6  0  0  0
 29 28  1  0  0  0  0
 31 32  1  6  0  0  0
 31 29  1  0  0  0  0
 33 34  1  1  0  0  0
 33 35  1  0  0  0  0
 33 31  1  0  0  0  0
 35 36  1  1  0  0  0
 35 30  1  0  0  0  0
 36 37  1  0  0  0  0
 38 37  2  0  0  0  0
 39 38  1  0  0  0  0
 40 41  2  0  0  0  0
 40 39  1  0  0  0  0
 42 40  1  0  0  0  0
 43 42  2  0  0  0  0
 43 45  1  0  0  0  0
 44 43  1  0  0  0  0
 45 46  1  0  0  0  0
 46 39  2  0  0  0  0
 46 36  1  0  0  0  0
M  END
>  <CHROM.1>
20.33866045,-10.95354231,157.17028222,43.54349496,143.88921481,-0.37124153
-0.18014871,1.01634388

>  <Name>
lig.pdb

>  <RI>
0

>  <Rbt.Current_Directory>
/home/itssahil/PROJECTS/Mol_Feturizer/New_Systems/rnas/4yb0

>  <Rbt.Executable>
rbdock ($Id: //depot/dev/client3/rdock/2013.1/src/exe/rbdock.cxx#4 $)

>  <Rbt.Library>
libRbt.so (2013.1, Build901 2013/11/27)

>  <Rbt.Parameter_File>
/export/apps/rDock/src/rDock_2013.1_src/data/scripts/dock_solv.prm

>  <Rbt.Receptor>
prm/pocket_docking_3.prm

>  <SCORE>
-53.5822

>  <SCORE.INTER>
-53.4849

>  <SCORE.INTER.CONST>
1

>  <SCORE.INTER.POLAR>
0

>  <SCORE.INTER.ROT>
2

>  <SCORE.INTER.SOLV>
31.5091

>  <SCORE.INTER.VDW>
-51.093

>  <SCORE.INTER.norm>
-1.16272

>  <SCORE.INTRA>
-0.0972988

>  <SCORE.INTRA.DIHEDRAL>
-0.0159156

>  <SCORE.INTRA.DIHEDRAL.0>
4.74153

>  <SCORE.INTRA.POLAR>
0

>  <SCORE.INTRA.POLAR.0>
0

>  <SCORE.INTRA.REPUL>
0

>  <SCORE.INTRA.REPUL.0>
0

>  <SCORE.INTRA.SOLV>
0.00157271

>  <SCORE.INTRA.SOLV.lig_0>
-60.4375

>  <SCORE.INTRA.VDW>
-0.0901274

>  <SCORE.INTRA.VDW.0>
-1.83689

>  <SCORE.INTRA.norm>
-0.00211519

>  <SCORE.RESTR>
0

>  <SCORE.RESTR.CAVITY>
0

>  <SCORE.RESTR.norm>
0

>  <SCORE.SYSTEM>
0

>  <SCORE.SYSTEM.CONST>
0

>  <SCORE.SYSTEM.DIHEDRAL>
0

>  <SCORE.SYSTEM.SOLV>
0

>  <SCORE.SYSTEM.norm>
0

>  <SCORE.heavy>
46

>  <SCORE.norm>
-1.16483

>  <RMSD>
0.443

$$$$
lig.pdb
 OpenBabel11021811523D
libRbt.so/2013.1/901 2013/11/27
 46 52  0  0  0  0  0  0  0  0999 V2000
  159.6965   46.2075  143.4528 P   0  0  2  0  0  0  0  0  0  0  0  0
  160.3518   47.5383  143.7510 O   0  0  0  0  0  0  0  0  0  0  0  0
  159.2082   45.9934  142.0432 O   0  0  0  0  0  0  0  0  0  0  0  0
  158.4762   45.9184  144.4590 O   0  0  0  0  0  0  0  0  0  0  0  0
  158.2398   46.7372  145.5968 C   0  0  0  0  0  0  0  0  0  0  0  0
  157.3042   46.0283  146.5621 C   0  0  1  0  0  0  0  0  0  0  0  0
  156.0133   46.6056  146.4268 O   0  0  0  0  0  0  0  0  0  0  0  0
  157.1283   44.5328  146.3317 C   0  0  1  0  0  0  0  0  0  0  0  0
  157.8747   43.8091  147.2990 O   0  0  0  0  0  0  0  0  0  0  0  0
  155.6586   44.3045  146.6055 C   0  0  1  0  0  0  0  0  0  0  0  0
  155.4698   44.0018  147.9892 O   0  0  0  0  0  0  0  0  0  0  0  0
  154.9900   45.6247  146.3536 C   0  0  2  0  0  0  0  0  0  0  0  0
  154.4249   45.6306  144.9834 N   0  0  0  0  0  0  0  0  0  0  0  0
  155.0358   46.1104  143.8861 C   0  0  0  0  0  0  0  0  0  0  0  0
  154.2385   45.9766  142.7991 N   0  0  0  0  0  0  0  0  0  0  0  0
  153.0890   45.4008  143.1938 C   0  0  0  0  0  0  0  0  0  0  0  0
  151.8254   44.9762  142.5465 C   0  0  0  0  0  0  0  0  0  0  0  0
  151.6564   45.1486  141.3153 O   0  0  0  0  0  0  0  0  0  0  0  0
  150.8826   44.4110  143.3199 N   0  0  0  0  0  0  0  0  0  0  0  0
  151.0683   44.2297  144.6411 C   0  0  0  0  0  0  0  0  0  0  0  0
  150.0870   43.6513  145.3690 N   0  0  0  0  0  0  0  0  0  0  0  0
  152.1953   44.5937  145.2940 N   0  0  0  0  0  0  0  0  0  0  0  0
  153.2217   45.1740  144.6363 C   0  0  0  0  0  0  0  0  0  0  0  0
  158.1472   42.2114  147.2027 P   0  0  2  0  0  0  0  0  0  0  0  0
  156.8425   41.5013  146.9353 O   0  0  0  0  0  0  0  0  0  0  0  0
  158.9950   41.8567  148.4099 O   0  0  0  0  0  0  0  0  0  0  0  0
  159.0455   42.0936  145.8653 O   0  0  0  0  0  0  0  0  0  0  0  0
  160.4415   42.3855  145.9128 C   0  0  0  0  0  0  0  0  0  0  0  0
  161.0432   42.6794  144.5350 C   0  0  1  0  0  0  0  0  0  0  0  0
  161.1510   41.4605  143.7965 O   0  0  0  0  0  0  0  0  0  0  0  0
  160.2397   43.6496  143.6718 C   0  0  1  0  0  0  0  0  0  0  0  0
  160.7010   44.9942  143.7963 O   0  0  0  0  0  0  0  0  0  0  0  0
  160.4731   43.1072  142.2741 C   0  0  1  0  0  0  0  0  0  0  0  0
  161.6696   43.6514  141.7103 O   0  0  0  0  0  0  0  0  0  0  0  0
  160.6907   41.6190  142.4518 C   0  0  2  0  0  0  0  0  0  0  0  0
  159.3971   40.9073  142.3030 N   0  0  0  0  0  0  0  0  0  0  0  0
  158.8607   40.0556  143.1993 C   0  0  0  0  0  0  0  0  0  0  0  0
  157.6573   39.5723  142.7829 N   0  0  0  0  0  0  0  0  0  0  0  0
  157.3996   40.1282  141.5885 C   0  0  0  0  0  0  0  0  0  0  0  0
  156.3097   40.0483  140.5828 C   0  0  0  0  0  0  0  0  0  0  0  0
  155.2927   39.3420  140.7528 O   0  0  0  0  0  0  0  0  0  0  0  0
  156.4357   40.7865  139.4788 N   0  0  0  0  0  0  0  0  0  0  0  0
  157.5047   41.5654  139.2523 C   0  0  0  0  0  0  0  0  0  0  0  0
  157.5343   42.2544  138.1017 N   0  0  0  0  0  0  0  0  0  0  0  0
  158.5411   41.6844  140.1148 N   0  0  0  0  0  0  0  0  0  0  0  0
  158.5487   41.0027  141.2795 C   0  0  0  0  0  0  0  0  0  0  0  0
  1  3  2  6  0  0  0
  1 32  1  0  0  0  0
  1  2  1  0  0  0  0
  1  4  1  0  0  0  0
  4  5  1  0  0  0  0
  6  5  1  6  0  0  0
  7  6  1  0  0  0  0
  8  6  1  0  0  0  0
  8 10  1  0  0  0  0
  8  9  1  1  0  0  0
 10 11  1  1  0  0  0
 12 13  1  6  0  0  0
 12  7  1  0  0  0  0
 12 10  1  0  0  0  0
 14 13  1  0  0  0  0
 15 16  1  0  0  0  0
 15 14  2  0  0  0  0
 16 23  2  0  0  0  0
 17 16  1  0  0  0  0
 17 19  1  0  0  0  0
 18 17  2  0  0  0  0
 19 20  2  0  0  0  0
 20 22  1  0  0  0  0
 20 21  1  0  0  0  0
 23 13  1  0  0  0  0
 23 22  1  0  0  0  0
 24 25  2  6  0  0  0
 24  9  1  0  0  0  0
 24 26  1  0  0  0  0
 27 28  1  0  0  0  0
 27 24  1  0  0  0  0
 29 30  1  6  0  0  0
 29 28  1  0  0  0  0
 31 32  1  6  0  0  0
 31 29  1  0  0  0  0
 33 34  1  1  0  0  0
 33 35  1  0  0  0  0
 33 31  1  0  0  0  0
 35 36  1  1  0  0  0
 35 30  1  0  0  0  0
 36 37  1  0  0  0  0
 38 37  2  0  0  0  0
 39 38  1  0  0  0  0
 40 41  2  0  0  0  0
 40 39  1  0  0  0  0
 42 40  1  0  0  0  0
 43 42  2  0  0  0  0
 43 45  1  0  0  0  0
 44 43  1  0  0  0  0
 45 46  1  0  0  0  0
 46 39  2  0  0  0  0
 46 36  1  0  0  0  0
M  END
>  <CHROM.1>
21.07350276,-11.00818168,157.15318233,43.56529239,143.93643857,-0.36351423
-0.16758085,1.01228896

>  <Name>
lig.pdb

>  <RI>
0

>  <Rbt.Current_Directory>
/home/itssahil/PROJECTS/Mol_Feturizer/New_Systems/rnas/4yb0

>  <Rbt.Executable>
rbdock ($Id: //depot/dev/client3/rdock/2013.1/src/exe/rbdock.cxx#4 $)

>  <Rbt.Library>
libRbt.so (2013.1, Build901 2013/11/27)

>  <Rbt.Parameter_File>
/export/apps/rDock/src/rDock_2013.1_src/data/scripts/dock_solv.prm

>  <Rbt.Receptor>
prm/pocket_docking_4.prm

>  <SCORE>
-53.6085

>  <SCORE.INTER>
-53.5057

>  <SCORE.INTER.CONST>
1

>  <SCORE.INTER.POLAR>
0

>  <SCORE.INTER.ROT>
2

>  <SCORE.INTER.SOLV>
31.1028

>  <SCORE.INTER.VDW>
-50.9714

>  <SCORE.INTER.norm>
-1.16317

>  <SCORE.INTRA>
-0.102845

>  <SCORE.INTRA.DIHEDRAL>
-0.0168509

>  <SCORE.INTRA.DIHEDRAL.0>
4.74153

>  <SCORE.INTRA.POLAR>
0

>  <SCORE.INTRA.POLAR.0>
0

>  <SCORE.INTRA.REPUL>
0

>  <SCORE.INTRA.REPUL.0>
0

>  <SCORE.INTRA.SOLV>
0.00253815

>  <SCORE.INTRA.SOLV.lig_0>
-60.4375

>  <SCORE.INTRA.VDW>
-0.0956887

>  <SCORE.INTRA.VDW.0>
-1.83689

>  <SCORE.INTRA.norm>
-0.00223576

>  <SCORE.RESTR>
0

>  <SCORE.RESTR.CAVITY>
0

>  <SCORE.RESTR.norm>
0

>  <SCORE.SYSTEM>
0

>  <SCORE.SYSTEM.CONST>
0

>  <SCORE.SYSTEM.DIHEDRAL>
0

>  <SCORE.SYSTEM.SOLV>
0

>  <SCORE.SYSTEM.norm>
0

>  <SCORE.heavy>
46

>  <SCORE.norm>
-1.1654

>  <RMSD>
0.444

$$$$
lig.pdb
 OpenBabel11021811523D
libRbt.so/2013.1/901 2013/11/27
 46 52  0  0  0  0  0  0  0  0999 V2000
  159.6968   46.2095  143.4401 P   0  0  2  0  0  0  0  0  0  0  0  0
  160.3523   47.5412  143.7340 O   0  0  0  0  0  0  0  0  0  0  0  0
  159.2076   45.9912  142.0315 O   0  0  0  0  0  0  0  0  0  0  0  0
  158.4772   45.9233  144.4480 O   0  0  0  0  0  0  0  0  0  0  0  0
  158.2415   46.7455  145.5835 C   0  0  0  0  0  0  0  0  0  0  0  0
  157.3065   46.0394  146.5516 C   0  0  1  0  0  0  0  0  0  0  0  0
  156.0155   46.6161  146.4153 O   0  0  0  0  0  0  0  0  0  0  0  0
  157.1305   44.5431  146.3256 C   0  0  1  0  0  0  0  0  0  0  0  0
  157.8776   43.8224  147.2946 O   0  0  0  0  0  0  0  0  0  0  0  0
  155.6611   44.3156  146.6011 C   0  0  1  0  0  0  0  0  0  0  0  0
  155.4731   44.0170  147.9858 O   0  0  0  0  0  0  0  0  0  0  0  0
  154.9922   45.6350  146.3457 C   0  0  2  0  0  0  0  0  0  0  0  0
  154.4262   45.6368  144.9759 N   0  0  0  0  0  0  0  0  0  0  0  0
  155.0364   46.1133  143.8767 C   0  0  0  0  0  0  0  0  0  0  0  0
  154.2384   45.9763  142.7906 N   0  0  0  0  0  0  0  0  0  0  0  0
  153.0892   45.4016  143.1878 C   0  0  0  0  0  0  0  0  0  0  0  0
  151.8251   44.9751  142.5426 C   0  0  0  0  0  0  0  0  0  0  0  0
  151.6554   45.1438  141.3110 O   0  0  0  0  0  0  0  0  0  0  0  0
  150.8829   44.4123  143.3183 N   0  0  0  0  0  0  0  0  0  0  0  0
  151.0694   44.2349  144.6399 C   0  0  0  0  0  0  0  0  0  0  0  0
  150.0886   43.6587  145.3702 N   0  0  0  0  0  0  0  0  0  0  0  0
  152.1968   44.6008  145.2910 N   0  0  0  0  0  0  0  0  0  0  0  0
  153.2228   45.1792  144.6309 C   0  0  0  0  0  0  0  0  0  0  0  0
  158.1502   42.2245  147.2029 P   0  0  2  0  0  0  0  0  0  0  0  0
  156.8454   41.5134  146.9384 O   0  0  0  0  0  0  0  0  0  0  0  0
  158.9988   41.8734  148.4106 O   0  0  0  0  0  0  0  0  0  0  0  0
  159.0476   42.1027  145.8653 O   0  0  0  0  0  0  0  0  0  0  0  0
  160.4437   42.3948  145.9110 C   0  0  0  0  0  0  0  0  0  0  0  0
  161.0444   42.6847  144.5320 C   0  0  1  0  0  0  0  0  0  0  0  0
  161.1518   41.4636  143.7970 O   0  0  0  0  0  0  0  0  0  0  0  0
  160.2403   43.6523  143.6663 C   0  0  1  0  0  0  0  0  0  0  0  0
  160.7016   44.9973  143.7866 O   0  0  0  0  0  0  0  0  0  0  0  0
  160.4728   43.1057  142.2702 C   0  0  1  0  0  0  0  0  0  0  0  0
  161.6689   43.6484  141.7040 O   0  0  0  0  0  0  0  0  0  0  0  0
  160.6907   41.6181  142.4522 C   0  0  2  0  0  0  0  0  0  0  0  0
  159.3970   40.9059  142.3063 N   0  0  0  0  0  0  0  0  0  0  0  0
  158.8653   40.0503  143.2016 C   0  0  0  0  0  0  0  0  0  0  0  0
  157.6604   39.5675  142.7887 N   0  0  0  0  0  0  0  0  0  0  0  0
  157.3971   40.1279  141.5975 C   0  0  0  0  0  0  0  0  0  0  0  0
  156.3028   40.0509  140.5964 C   0  0  0  0  0  0  0  0  0  0  0  0
  155.2872   39.3430  140.7681 O   0  0  0  0  0  0  0  0  0  0  0  0
  156.4233   40.7933  139.4946 N   0  0  0  0  0  0  0  0  0  0  0  0
  157.4907   41.5740  139.2664 C   0  0  0  0  0  0  0  0  0  0  0  0
  157.5147   42.2674  138.1184 N   0  0  0  0  0  0  0  0  0  0  0  0
  158.5308   41.6906  140.1248 N   0  0  0  0  0  0  0  0  0  0  0  0
  158.5441   41.0045  141.2869 C   0  0  0  0  0  0  0  0  0  0  0  0
  1  3  2  6  0  0  0
  1 32  1  0  0  0  0
  1  2  1  0  0  0  0
  1  4  1  0  0  0  0
  4  5  1  0  0  0  0
  6  5  1  6  0  0  0
  7  6  1  0  0  0  0
  8  6  1  0  0  0  0
  8 10  1  0  0  0  0
  8  9  1  1  0  0  0
 10 11  1  1  0  0  0
 12 13  1  6  0  0  0
 12  7  1  0  0  0  0
 12 10  1  0  0  0  0
 14 13  1  0  0  0  0
 15 16  1  0  0  0  0
 15 14  2  0  0  0  0
 16 23  2  0  0  0  0
 17 16  1  0  0  0  0
 17 19  1  0  0  0  0
 18 17  2  0  0  0  0
 19 20  2  0  0  0  0
 20 22  1  0  0  0  0
 20 21  1  0  0  0  0
 23 13  1  0  0  0  0
 23 22  1  0  0  0  0
 24 25  2  6  0  0  0
 24  9  1  0  0  0  0
 24 26  1  0  0  0  0
 27 28  1  0  0  0  0
 27 24  1  0  0  0  0
 29 30  1  6  0  0  0
 29 28  1  0  0  0  0
 31 32  1  6  0  0  0
 31 29  1  0  0  0  0
 33 34  1  1  0  0  0
 33 35  1  0  0  0  0
 33 31  1  0  0  0  0
 35 36  1  1  0  0  0
 35 30  1  0  0  0  0
 36 37  1  0  0  0  0
 38 37  2  0  0  0  0
 39 38  1  0  0  0  0
 40 41  2  0  0  0  0
 40 39  1  0  0  0  0
 42 40  1  0  0  0  0
 43 42  2  0  0  0  0
 43 45  1  0  0  0  0
 44 43  1  0  0  0  0
 45 46  1  0  0  0  0
 46 39  2  0  0  0  0
 46 36  1  0  0  0  0
M  END
>  <CHROM.1>
21.07754561,-11.45387462,157.15283251,43.57040422,143.93438219,-0.35994988
-0.16753571,1.01009771

>  <Name>
lig.pdb

>  <RI>
0

>  <Rbt.Current_Directory>
/home/itssahil/PROJECTS/Mol_Feturizer/New_Systems/rnas/4yb0

>  <Rbt.Executable>
rbdock ($Id: //depot/dev/client3/rdock/2013.1/src/exe/rbdock.cxx#4 $)

>  <Rbt.Library>
libRbt.so (2013.1, Build901 2013/11/27)

>  <Rbt.Parameter_File>
/export/apps/rDock/src/rDock_2013.1_src/data/scripts/dock_solv.prm

>  <Rbt.Receptor>
prm/pocket_docking_2.prm

>  <SCORE>
-53.6275

>  <SCORE.INTER>
-53.5263

>  <SCORE.INTER.CONST>
1

>  <SCORE.INTER.POLAR>
0

>  <SCORE.INTER.ROT>
2

>  <SCORE.INTER.SOLV>
31.0732

>  <SCORE.INTER.VDW>
-50.9753

>  <SCORE.INTER.norm>
-1.16362

>  <SCORE.INTRA>
-0.101204

>  <SCORE.INTRA.DIHEDRAL>
-0.0180018

>  <SCORE.INTRA.DIHEDRAL.0>
4.74153

>  <SCORE.INTRA.POLAR>
0

>  <SCORE.INTRA.POLAR.0>
0

>  <SCORE.INTRA.REPUL>
0

>  <SCORE.INTRA.REPUL.0>
0

>  <SCORE.INTRA.SOLV>
0.000636125

>  <SCORE.INTRA.SOLV.lig_0>
-60.4375

>  <SCORE.INTRA.VDW>
-0.092521

>  <SCORE.INTRA.VDW.0>
-1.83689

>  <SCORE.INTRA.norm>
-0.00220008

>  <SCORE.RESTR>
0

>  <SCORE.RESTR.CAVITY>
0

>  <SCORE.RESTR.norm>
0

>  <SCORE.SYSTEM>
0

>  <SCORE.SYSTEM.CONST>
0

>  <SCORE.SYSTEM.DIHEDRAL>
0

>  <SCORE.SYSTEM.SOLV>
0

>  <SCORE.SYSTEM.norm>
0

>  <SCORE.heavy>
46

>  <SCORE.norm>
-1.16582

>  <RMSD>
0.446

$$$$
lig.pdb
 OpenBabel11021811523D
libRbt.so/2013.1/901 2013/11/27
 46 52  0  0  0  0  0  0  0  0999 V2000
  159.6980   46.2082  143.4370 P   0  0  2  0  0  0  0  0  0  0  0  0
  160.3540   47.5398  143.7301 O   0  0  0  0  0  0  0  0  0  0  0  0
  159.2083   45.9895  142.0286 O   0  0  0  0  0  0  0  0  0  0  0  0
  158.4786   45.9229  144.4453 O   0  0  0  0  0  0  0  0  0  0  0  0
  158.2435   46.7456  145.5806 C   0  0  0  0  0  0  0  0  0  0  0  0
  157.3085   46.0404  146.5492 C   0  0  1  0  0  0  0  0  0  0  0  0
  156.0177   46.6175  146.4130 O   0  0  0  0  0  0  0  0  0  0  0  0
  157.1320   44.5441  146.3240 C   0  0  1  0  0  0  0  0  0  0  0  0
  157.8790   43.8235  147.2931 O   0  0  0  0  0  0  0  0  0  0  0  0
  155.6625   44.3172  146.5999 C   0  0  1  0  0  0  0  0  0  0  0  0
  155.4748   44.0192  147.9849 O   0  0  0  0  0  0  0  0  0  0  0  0
  154.9940   45.6367  146.3442 C   0  0  2  0  0  0  0  0  0  0  0  0
  154.4276   45.6381  144.9745 N   0  0  0  0  0  0  0  0  0  0  0  0
  155.0377   46.1137  143.8750 C   0  0  0  0  0  0  0  0  0  0  0  0
  154.2394   45.9766  142.7891 N   0  0  0  0  0  0  0  0  0  0  0  0
  153.0900   45.4027  143.1870 C   0  0  0  0  0  0  0  0  0  0  0  0
  151.8255   44.9765  142.5423 C   0  0  0  0  0  0  0  0  0  0  0  0
  151.6555   45.1446  141.3107 O   0  0  0  0  0  0  0  0  0  0  0  0
  150.8832   44.4145  143.3186 N   0  0  0  0  0  0  0  0  0  0  0  0
  151.0700   44.2377  144.6402 C   0  0  0  0  0  0  0  0  0  0  0  0
  150.0891   43.6624  145.3711 N   0  0  0  0  0  0  0  0  0  0  0  0
  152.1978   44.6034  145.2908 N   0  0  0  0  0  0  0  0  0  0  0  0
  153.2239   45.1809  144.6301 C   0  0  0  0  0  0  0  0  0  0  0  0
  158.1511   42.2254  147.2020 P   0  0  2  0  0  0  0  0  0  0  0  0
  156.8459   41.5147  146.9382 O   0  0  0  0  0  0  0  0  0  0  0  0
  158.9999   41.8745  148.4096 O   0  0  0  0  0  0  0  0  0  0  0  0
  159.0480   42.1027  145.8642 O   0  0  0  0  0  0  0  0  0  0  0  0
  160.4442   42.3944  145.9093 C   0  0  0  0  0  0  0  0  0  0  0  0
  161.0446   42.6835  144.5300 C   0  0  1  0  0  0  0  0  0  0  0  0
  161.1514   41.4620  143.7956 O   0  0  0  0  0  0  0  0  0  0  0  0
  160.2407   43.6509  143.6642 C   0  0  1  0  0  0  0  0  0  0  0  0
  160.7025   44.9957  143.7837 O   0  0  0  0  0  0  0  0  0  0  0  0
  160.4725   43.1036  142.2682 C   0  0  1  0  0  0  0  0  0  0  0  0
  161.6687   43.6456  141.7014 O   0  0  0  0  0  0  0  0  0  0  0  0
  160.6899   41.6160  142.4508 C   0  0  2  0  0  0  0  0  0  0  0  0
  159.3959   40.9042  142.3056 N   0  0  0  0  0  0  0  0  0  0  0  0
  158.8649   40.0480  143.2008 C   0  0  0  0  0  0  0  0  0  0  0  0
  157.6595   39.5659  142.7886 N   0  0  0  0  0  0  0  0  0  0  0  0
  157.3952   40.1272  141.5981 C   0  0  0  0  0  0  0  0  0  0  0  0
  156.2999   40.0512  140.5980 C   0  0  0  0  0  0  0  0  0  0  0  0
  155.2843   39.3434  140.7702 O   0  0  0  0  0  0  0  0  0  0  0  0
  156.4196   40.7945  139.4967 N   0  0  0  0  0  0  0  0  0  0  0  0
  157.4869   41.5751  139.2681 C   0  0  0  0  0  0  0  0  0  0  0  0
  157.5100   42.2694  138.1206 N   0  0  0  0  0  0  0  0  0  0  0  0
  158.5278   41.6908  140.1256 N   0  0  0  0  0  0  0  0  0  0  0  0
  158.5421   41.0038  141.2871 C   0  0  0  0  0  0  0  0  0  0  0  0
  1  3  2  6  0  0  0
  1 32  1  0  0  0  0
  1  2  1  0  0  0  0
  1  4  1  0  0  0  0
  4  5  1  0  0  0  0
  6  5  1  6  0  0  0
  7  6  1  0  0  0  0
  8  6  1  0  0  0  0
  8 10  1  0  0  0  0
  8  9  1  1  0  0  0
 10 11  1  1  0  0  0
 12 13  1  6  0  0  0
 12  7  1  0  0  0  0
 12 10  1  0  0  0  0
 14 13  1  0  0  0  0
 15 16  1  0  0  0  0
 15 14  2  0  0  0  0
 16 23  2  0  0  0  0
 17 16  1  0  0  0  0
 17 19  1  0  0  0  0
 18 17  2  0  0  0  0
 19 20  2  0  0  0  0
 20 22  1  0  0  0  0
 20 21  1  0  0  0  0
 23 13  1  0  0  0  0
 23 22  1  0  0  0  0
 24 25  2  6  0  0  0
 24  9  1  0  0  0  0
 24 26  1  0  0  0  0
 27 28  1  0  0  0  0
 27 24  1  0  0  0  0
 29 30  1  6  0  0  0
 29 28  1  0  0  0  0
 31 32  1  6  0  0  0
 31 29  1  0  0  0  0
 33 34  1  1  0  0  0
 33 35  1  0  0  0  0
 33 31  1  0  0  0  0
 35 36  1  1  0  0  0
 35 30  1  0  0  0  0
 36 37  1  0  0  0  0
 38 37  2  0  0  0  0
 39 38  1  0  0  0  0
 40 41  2  0  0  0  0
 40 39  1  0  0  0  0
 42 40  1  0  0  0  0
 43 42  2  0  0  0  0
 43 45  1  0  0  0  0
 44 43  1  0  0  0  0
 45 46  1  0  0  0  0
 46 39  2  0  0  0  0
 46 36  1  0  0  0  0
M  END
>  <CHROM.1>
21.08654303,-11.53480967,157.15299467,43.57062305,143.93336660,-0.35967026
-0.16778355,1.00974100

>  <Name>
lig.pdb

>  <RI>
0

>  <Rbt.Current_Directory>
/home/itssahil/PROJECTS/Mol_Feturizer/New_Systems/rnas/4yb0

>  <Rbt.Executable>
rbdock ($Id: //depot/dev/client3/rdock/2013.1/src/exe/rbdock.cxx#4 $)

>  <Rbt.Library>
libRbt.so (2013.1, Build901 2013/11/27)

>  <Rbt.Parameter_File>
/export/apps/rDock/src/rDock_2013.1_src/data/scripts/dock_solv.prm

>  <Rbt.Receptor>
prm/pocket_docking_2.prm

>  <SCORE>
-53.628

>  <SCORE.INTER>
-53.527

>  <SCORE.INTER.CONST>
1

>  <SCORE.INTER.POLAR>
0

>  <SCORE.INTER.ROT>
2

>  <SCORE.INTER.SOLV>
31.0813

>  <SCORE.INTER.VDW>
-50.9784

>  <SCORE.INTER.norm>
-1.16363

>  <SCORE.INTRA>
-0.100965

>  <SCORE.INTRA.DIHEDRAL>
-0.0182174

>  <SCORE.INTRA.DIHEDRAL.0>
4.74153

>  <SCORE.INTRA.POLAR>
0

>  <SCORE.INTRA.POLAR.0>
0

>  <SCORE.INTRA.REPUL>
0

>  <SCORE.INTRA.REPUL.0>
0

>  <SCORE.INTRA.SOLV>
0.000299134

>  <SCORE.INTRA.SOLV.lig_0>
-60.4375

>  <SCORE.INTRA.VDW>
-0.0920056

>  <SCORE.INTRA.VDW.0>
-1.83689

>  <SCORE.INTRA.norm>
-0.00219488

>  <SCORE.RESTR>
0

>  <SCORE.RESTR.CAVITY>
0

>  <SCORE.RESTR.norm>
0

>  <SCORE.SYSTEM>
0

>  <SCORE.SYSTEM.CONST>
0

>  <SCORE.SYSTEM.DIHEDRAL>
0

>  <SCORE.SYSTEM.SOLV>
0

>  <SCORE.SYSTEM.norm>
0

>  <SCORE.heavy>
46

>  <SCORE.norm>
-1.16583

>  <RMSD>
0.446

$$$$
lig.pdb
 OpenBabel11021811523D
libRbt.so/2013.1/901 2013/11/27
 46 52  0  0  0  0  0  0  0  0999 V2000
  159.6804   46.2379  143.4407 P   0  0  2  0  0  0  0  0  0  0  0  0
  160.3309   47.5710  143.7400 O   0  0  0  0  0  0  0  0  0  0  0  0
  159.1905   46.0243  142.0316 O   0  0  0  0  0  0  0  0  0  0  0  0
  158.4632   45.9421  144.4486 O   0  0  0  0  0  0  0  0  0  0  0  0
  158.2256   46.7580  145.5883 C   0  0  0  0  0  0  0  0  0  0  0  0
  157.2946   46.0436  146.5541 C   0  0  1  0  0  0  0  0  0  0  0  0
  156.0011   46.6158  146.4221 O   0  0  0  0  0  0  0  0  0  0  0  0
  157.1244   44.5477  146.3213 C   0  0  1  0  0  0  0  0  0  0  0  0
  157.8755   43.8254  147.2860 O   0  0  0  0  0  0  0  0  0  0  0  0
  155.6562   44.3130  146.5974 C   0  0  1  0  0  0  0  0  0  0  0  0
  155.4711   44.0071  147.9810 O   0  0  0  0  0  0  0  0  0  0  0  0
  154.9817   45.6309  146.3490 C   0  0  2  0  0  0  0  0  0  0  0  0
  154.4141   45.6368  144.9799 N   0  0  0  0  0  0  0  0  0  0  0  0
  155.0236   46.1151  143.8812 C   0  0  0  0  0  0  0  0  0  0  0  0
  154.2241   45.9819  142.7957 N   0  0  0  0  0  0  0  0  0  0  0  0
  153.0745   45.4079  143.1929 C   0  0  0  0  0  0  0  0  0  0  0  0
  151.8091   44.9849  142.5482 C   0  0  0  0  0  0  0  0  0  0  0  0
  151.6381   45.1567  141.3172 O   0  0  0  0  0  0  0  0  0  0  0  0
  150.8669   44.4215  143.3237 N   0  0  0  0  0  0  0  0  0  0  0  0
  151.0548   44.2407  144.6447 C   0  0  0  0  0  0  0  0  0  0  0  0
  150.0740   43.6641  145.3747 N   0  0  0  0  0  0  0  0  0  0  0  0
  152.1835   44.6033  145.2953 N   0  0  0  0  0  0  0  0  0  0  0  0
  153.2096   45.1818  144.6353 C   0  0  0  0  0  0  0  0  0  0  0  0
  158.1545   42.2291  147.1865 P   0  0  2  0  0  0  0  0  0  0  0  0
  156.8522   41.5140  146.9202 O   0  0  0  0  0  0  0  0  0  0  0  0
  159.0059   41.8758  148.3915 O   0  0  0  0  0  0  0  0  0  0  0  0
  159.0507   42.1172  145.8473 O   0  0  0  0  0  0  0  0  0  0  0  0
  160.4456   42.4148  145.8927 C   0  0  0  0  0  0  0  0  0  0  0  0
  161.0435   42.7136  144.5143 C   0  0  1  0  0  0  0  0  0  0  0  0
  161.1550   41.4964  143.7735 O   0  0  0  0  0  0  0  0  0  0  0  0
  160.2345   43.6819  143.6542 C   0  0  1  0  0  0  0  0  0  0  0  0
  160.6906   45.0282  143.7803 O   0  0  0  0  0  0  0  0  0  0  0  0
  160.4675   43.1429  142.2552 C   0  0  1  0  0  0  0  0  0  0  0  0
  161.6608   43.6930  141.6902 O   0  0  0  0  0  0  0  0  0  0  0  0
  160.6916   41.6553  142.4300 C   0  0  2  0  0  0  0  0  0  0  0  0
  159.4006   40.9386  142.2822 N   0  0  0  0  0  0  0  0  0  0  0  0
  158.8833   40.0609  143.1646 C   0  0  0  0  0  0  0  0  0  0  0  0
  157.6770   39.5798  142.7539 N   0  0  0  0  0  0  0  0  0  0  0  0
  157.3980   40.1638  141.5777 C   0  0  0  0  0  0  0  0  0  0  0  0
  156.2938   40.1015  140.5865 C   0  0  0  0  0  0  0  0  0  0  0  0
  155.2841   39.3840  140.7536 O   0  0  0  0  0  0  0  0  0  0  0  0
  156.3985   40.8679  139.4996 N   0  0  0  0  0  0  0  0  0  0  0  0
  157.4589   41.6598  139.2772 C   0  0  0  0  0  0  0  0  0  0  0  0
  157.4669   42.3775  138.1440 N   0  0  0  0  0  0  0  0  0  0  0  0
  158.5072   41.7643  140.1271 N   0  0  0  0  0  0  0  0  0  0  0  0
  158.5366   41.0537  141.2740 C   0  0  0  0  0  0  0  0  0  0  0  0
  1  3  2  6  0  0  0
  1 32  1  0  0  0  0
  1  2  1  0  0  0  0
  1  4  1  0  0  0  0
  4  5  1  0  0  0  0
  6  5  1  6  0  0  0
  7  6  1  0  0  0  0
  8  6  1  0  0  0  0
  8 10  1  0  0  0  0
  8  9  1  1  0  0  0
 10 11  1  1  0  0  0
 12 13  1  6  0  0  0
 12  7  1  0  0  0  0
 12 10  1  0  0  0  0
 14 13  1  0  0  0  0
 15 16  1  0  0  0  0
 15 14  2  0  0  0  0
 16 23  2  0  0  0  0
 17 16  1  0  0  0  0
 17 19  1  0  0  0  0
 18 17  2  0  0  0  0
 19 20  2  0  0  0  0
 20 22  1  0  0  0  0
 20 21  1  0  0  0  0
 23 13  1  0  0  0  0
 23 22  1  0  0  0  0
 24 25  2  6  0  0  0
 24  9  1  0  0  0  0
 24 26  1  0  0  0  0
 27 28  1  0  0  0  0
 27 24  1  0  0  0  0
 29 30  1  6  0  0  0
 29 28  1  0  0  0  0
 31 32  1  6  0  0  0
 31 29  1  0  0  0  0
 33 34  1  1  0  0  0
 33 35  1  0  0  0  0
 33 31  1  0  0  0  0
 35 36  1  1  0  0  0
 35 30  1  0  0  0  0
 36 37  1  0  0  0  0
 38 37  2  0  0  0  0
 39 38  1  0  0  0  0
 40 41  2  0  0  0  0
 40 39  1  0  0  0  0
 42 40  1  0  0  0  0
 43 42  2  0  0  0  0
 43 45  1  0  0  0  0
 44 43  1  0  0  0  0
 45 46  1  0  0  0  0
 46 39  2  0  0  0  0
 46 36  1  0  0  0  0
M  END
>  <CHROM.1>
21.41895829,-12.54749057,157.14423323,43.59243343,143.92864878,-0.34979368
-0.16551954,1.01736758

>  <Name>
lig.pdb

>  <RI>
0

>  <Rbt.Current_Directory>
/home/itssahil/PROJECTS/Mol_Feturizer/New_Systems/rnas/4yb0

>  <Rbt.Executable>
rbdock ($Id: //depot/dev/client3/rdock/2013.1/src/exe/rbdock.cxx#4 $)

>  <Rbt.Library>
libRbt.so (2013.1, Build901 2013/11/27)

>  <Rbt.Parameter_File>
/export/apps/rDock/src/rDock_2013.1_src/data/scripts/dock_solv.prm

>  <Rbt.Receptor>
prm/pocket_docking_6.prm

>  <SCORE>
-53.5681

>  <SCORE.INTER>
-53.4692

>  <SCORE.INTER.CONST>
1

>  <SCORE.INTER.POLAR>
0

>  <SCORE.INTER.ROT>
2

>  <SCORE.INTER.SOLV>
31.1088

>  <SCORE.INTER.VDW>
-50.9491

>  <SCORE.INTER.norm>
-1.16237

>  <SCORE.INTRA>
-0.0988586

>  <SCORE.INTRA.DIHEDRAL>
-0.0210808

>  <SCORE.INTRA.DIHEDRAL.0>
4.74153

>  <SCORE.INTRA.POLAR>
0

>  <SCORE.INTRA.POLAR.0>
0

>  <SCORE.INTRA.REPUL>
0

>  <SCORE.INTRA.REPUL.0>
0

>  <SCORE.INTRA.SOLV>
-0.00236708

>  <SCORE.INTRA.SOLV.lig_0>
-60.4375

>  <SCORE.INTRA.VDW>
-0.0871347

>  <SCORE.INTRA.VDW.0>
-1.83689

>  <SCORE.INTRA.norm>
-0.0021491

>  <SCORE.RESTR>
0

>  <SCORE.RESTR.CAVITY>
0

>  <SCORE.RESTR.norm>
0

>  <SCORE.SYSTEM>
0

>  <SCORE.SYSTEM.CONST>
0

>  <SCORE.SYSTEM.DIHEDRAL>
0

>  <SCORE.SYSTEM.SOLV>
0

>  <SCORE.SYSTEM.norm>
0

>  <SCORE.heavy>
46

>  <SCORE.norm>
-1.16452

>  <RMSD>
0.446

$$$$
lig.pdb
 OpenBabel11021811523D
libRbt.so/2013.1/901 2013/11/27
 46 52  0  0  0  0  0  0  0  0999 V2000
  159.6836   46.2324  143.4341 P   0  0  2  0  0  0  0  0  0  0  0  0
  160.3351   47.5663  143.7272 O   0  0  0  0  0  0  0  0  0  0  0  0
  159.1949   46.0120  142.0256 O   0  0  0  0  0  0  0  0  0  0  0  0
  158.4650   45.9431  144.4422 O   0  0  0  0  0  0  0  0  0  0  0  0
  158.2269   46.7651  145.5774 C   0  0  0  0  0  0  0  0  0  0  0  0
  157.2942   46.0567  146.5459 C   0  0  1  0  0  0  0  0  0  0  0  0
  156.0015   46.6295  146.4095 O   0  0  0  0  0  0  0  0  0  0  0  0
  157.1227   44.5598  146.3207 C   0  0  1  0  0  0  0  0  0  0  0  0
  157.8721   43.8418  147.2900 O   0  0  0  0  0  0  0  0  0  0  0  0
  155.6540   44.3280  146.5965 C   0  0  1  0  0  0  0  0  0  0  0  0
  155.4671   44.0295  147.9814 O   0  0  0  0  0  0  0  0  0  0  0  0
  154.9811   45.6453  146.3405 C   0  0  2  0  0  0  0  0  0  0  0  0
  154.4150   45.6446  144.9707 N   0  0  0  0  0  0  0  0  0  0  0  0
  155.0246   46.1201  143.8709 C   0  0  0  0  0  0  0  0  0  0  0  0
  154.2266   45.9809  142.7850 N   0  0  0  0  0  0  0  0  0  0  0  0
  153.0779   45.4058  143.1832 C   0  0  0  0  0  0  0  0  0  0  0  0
  151.8142   44.9773  142.5387 C   0  0  0  0  0  0  0  0  0  0  0  0
  151.6441   45.1441  141.3070 O   0  0  0  0  0  0  0  0  0  0  0  0
  150.8725   44.4147  143.3153 N   0  0  0  0  0  0  0  0  0  0  0  0
  151.0593   44.2393  144.6372 C   0  0  0  0  0  0  0  0  0  0  0  0
  150.0791   43.6633  145.3684 N   0  0  0  0  0  0  0  0  0  0  0  0
  152.1865   44.6071  145.2876 N   0  0  0  0  0  0  0  0  0  0  0  0
  153.2119   45.1855  144.6266 C   0  0  0  0  0  0  0  0  0  0  0  0
  158.1495   42.2447  147.1991 P   0  0  2  0  0  0  0  0  0  0  0  0
  156.8468   41.5296  146.9351 O   0  0  0  0  0  0  0  0  0  0  0  0
  158.9993   41.8968  148.4068 O   0  0  0  0  0  0  0  0  0  0  0  0
  159.0471   42.1249  145.8614 O   0  0  0  0  0  0  0  0  0  0  0  0
  160.4423   42.4213  145.9067 C   0  0  0  0  0  0  0  0  0  0  0  0
  161.0420   42.7123  144.5275 C   0  0  1  0  0  0  0  0  0  0  0  0
  161.1529   41.4912  143.7932 O   0  0  0  0  0  0  0  0  0  0  0  0
  160.2349   43.6770  143.6615 C   0  0  1  0  0  0  0  0  0  0  0  0
  160.6921   45.0234  143.7810 O   0  0  0  0  0  0  0  0  0  0  0  0
  160.4688   43.1304  142.2656 C   0  0  1  0  0  0  0  0  0  0  0  0
  161.6632   43.6764  141.6990 O   0  0  0  0  0  0  0  0  0  0  0  0
  160.6912   41.6436  142.4483 C   0  0  2  0  0  0  0  0  0  0  0  0
  159.3996   40.9274  142.3029 N   0  0  0  0  0  0  0  0  0  0  0  0
  158.8883   40.0423  143.1814 C   0  0  0  0  0  0  0  0  0  0  0  0
  157.6796   39.5639  142.7744 N   0  0  0  0  0  0  0  0  0  0  0  0
  157.3929   40.1573  141.6048 C   0  0  0  0  0  0  0  0  0  0  0  0
  156.2825   40.1025  140.6201 C   0  0  0  0  0  0  0  0  0  0  0  0
  155.2743   39.3832  140.7877 O   0  0  0  0  0  0  0  0  0  0  0  0
  156.3800   40.8778  139.5389 N   0  0  0  0  0  0  0  0  0  0  0  0
  157.4386   41.6719  139.3161 C   0  0  0  0  0  0  0  0  0  0  0  0
  157.4391   42.3989  138.1888 N   0  0  0  0  0  0  0  0  0  0  0  0
  158.4922   41.7702  140.1603 N   0  0  0  0  0  0  0  0  0  0  0  0
  158.5292   41.0502  141.3012 C   0  0  0  0  0  0  0  0  0  0  0  0
  1  3  2  6  0  0  0
  1 32  1  0  0  0  0
  1  2  1  0  0  0  0
  1  4  1  0  0  0  0
  4  5  1  0  0  0  0
  6  5  1  6  0  0  0
  7  6  1  0  0  0  0
  8  6  1  0  0  0  0
  8 10  1  0  0  0  0
  8  9  1  1  0  0  0
 10 11  1  1  0  0  0
 12 13  1  6  0  0  0
 12  7  1  0  0  0  0
 12 10  1  0  0  0  0
 14 13  1  0  0  0  0
 15 16  1  0  0  0  0
 15 14  2  0  0  0  0
 16 23  2  0  0  0  0
 17 16  1  0  0  0  0
 17 19  1  0  0  0  0
 18 17  2  0  0  0  0
 19 20  2  0  0  0  0
 20 22  1  0  0  0  0
 20 21  1  0  0  0  0
 23 13  1  0  0  0  0
 23 22  1  0  0  0  0
 24 25  2  6  0  0  0
 24  9  1  0  0  0  0
 24 26  1  0  0  0  0
 27 28  1  0  0  0  0
 27 24  1  0  0  0  0
 29 30  1  6  0  0  0
 29 28  1  0  0  0  0
 31 32  1  6  0  0  0
 31 29  1  0  0  0  0
 33 34  1  1  0  0  0
 33 35  1  0  0  0  0
 33 31  1  0  0  0  0
 35 36  1  1  0  0  0
 35 30  1  0  0  0  0
 36 37  1  0  0  0  0
 38 37  2  0  0  0  0
 39 38  1  0  0  0  0
 40 41  2  0  0  0  0
 40 39  1  0  0  0  0
 42 40  1  0  0  0  0
 43 42  2  0  0  0  0
 43 45  1  0  0  0  0
 44 43  1  0  0  0  0
 45 46  1  0  0  0  0
 46 39  2  0  0  0  0
 46 36  1  0  0  0  0
M  END
>  <CHROM.1>
21.20983039,-13.42528302,157.14240663,43.59453027,143.93521255,-0.34113807
-0.16682490,1.01346689

>  <Name>
lig.pdb

>  <RI>
0

>  <Rbt.Current_Directory>
/home/itssahil/PROJECTS/Mol_Feturizer/New_Systems/rnas/4yb0

>  <Rbt.Executable>
rbdock ($Id: //depot/dev/client3/rdock/2013.1/src/exe/rbdock.cxx#4 $)

>  <Rbt.Library>
libRbt.so (2013.1, Build901 2013/11/27)

>  <Rbt.Parameter_File>
/export/apps/rDock/src/rDock_2013.1_src/data/scripts/dock_solv.prm

>  <Rbt.Receptor>
prm/pocket_docking_2.prm

>  <SCORE>
-53.6203

>  <SCORE.INTER>
-53.5277

>  <SCORE.INTER.CONST>
1

>  <SCORE.INTER.POLAR>
0

>  <SCORE.INTER.ROT>
2

>  <SCORE.INTER.SOLV>
31.0102

>  <SCORE.INTER.VDW>
-50.9552

>  <SCORE.INTER.norm>
-1.16365

>  <SCORE.INTRA>
-0.0926331

>  <SCORE.INTRA.DIHEDRAL>
-0.0229721

>  <SCORE.INTRA.DIHEDRAL.0>
4.74153

>  <SCORE.INTRA.POLAR>
0

>  <SCORE.INTRA.POLAR.0>
0

>  <SCORE.INTRA.REPUL>
0

>  <SCORE.INTRA.REPUL.0>
0

>  <SCORE.INTRA.SOLV>
-0.00495751

>  <SCORE.INTRA.SOLV.lig_0>
-60.4375

>  <SCORE.INTRA.VDW>
-0.0786683

>  <SCORE.INTRA.VDW.0>
-1.83689

>  <SCORE.INTRA.norm>
-0.00201376

>  <SCORE.RESTR>
0

>  <SCORE.RESTR.CAVITY>
0

>  <SCORE.RESTR.norm>
0

>  <SCORE.SYSTEM>
0

>  <SCORE.SYSTEM.CONST>
0

>  <SCORE.SYSTEM.DIHEDRAL>
0

>  <SCORE.SYSTEM.SOLV>
0

>  <SCORE.SYSTEM.norm>
0

>  <SCORE.heavy>
46

>  <SCORE.norm>
-1.16566

>  <RMSD>
0.447

$$$$
lig.pdb
 OpenBabel11021811523D
libRbt.so/2013.1/901 2013/11/27
 46 52  0  0  0  0  0  0  0  0999 V2000
  159.6849   46.2160  143.4558 P   0  0  2  0  0  0  0  0  0  0  0  0
  160.3292   47.5548  143.7422 O   0  0  0  0  0  0  0  0  0  0  0  0
  159.1997   45.9849  142.0479 O   0  0  0  0  0  0  0  0  0  0  0  0
  158.4661   45.9263  144.4636 O   0  0  0  0  0  0  0  0  0  0  0  0
  158.2221   46.7537  145.5936 C   0  0  0  0  0  0  0  0  0  0  0  0
  157.2914   46.0463  146.5647 C   0  0  1  0  0  0  0  0  0  0  0  0
  155.9959   46.6117  146.4229 O   0  0  0  0  0  0  0  0  0  0  0  0
  157.1278   44.5472  146.3481 C   0  0  1  0  0  0  0  0  0  0  0  0
  157.8792   43.8387  147.3227 O   0  0  0  0  0  0  0  0  0  0  0  0
  155.6598   44.3096  146.6228 C   0  0  1  0  0  0  0  0  0  0  0  0
  155.4722   44.0182  148.0091 O   0  0  0  0  0  0  0  0  0  0  0  0
  154.9807   45.6219  146.3580 C   0  0  2  0  0  0  0  0  0  0  0  0
  154.4168   45.6104  144.9874 N   0  0  0  0  0  0  0  0  0  0  0  0
  155.0321   46.0685  143.8833 C   0  0  0  0  0  0  0  0  0  0  0  0
  154.2348   45.9236  142.7977 N   0  0  0  0  0  0  0  0  0  0  0  0
  153.0808   45.3624  143.2004 C   0  0  0  0  0  0  0  0  0  0  0  0
  151.8147   44.9370  142.5585 C   0  0  0  0  0  0  0  0  0  0  0  0
  151.6480   45.0912  141.3247 O   0  0  0  0  0  0  0  0  0  0  0  0
  150.8671   44.3909  143.3398 N   0  0  0  0  0  0  0  0  0  0  0  0
  151.0504   44.2289  144.6639 C   0  0  0  0  0  0  0  0  0  0  0  0
  150.0643   43.6692  145.3998 N   0  0  0  0  0  0  0  0  0  0  0  0
  152.1794   44.5948  145.3121 N   0  0  0  0  0  0  0  0  0  0  0  0
  153.2106   45.1573  144.6463 C   0  0  0  0  0  0  0  0  0  0  0  0
  158.1649   42.2425  147.2415 P   0  0  2  0  0  0  0  0  0  0  0  0
  156.8662   41.5193  146.9796 O   0  0  0  0  0  0  0  0  0  0  0  0
  159.0144   41.9059  148.4527 O   0  0  0  0  0  0  0  0  0  0  0  0
  159.0652   42.1195  145.9060 O   0  0  0  0  0  0  0  0  0  0  0  0
  160.4588   42.4232  145.9519 C   0  0  0  0  0  0  0  0  0  0  0  0
  161.0593   42.7092  144.5719 C   0  0  1  0  0  0  0  0  0  0  0  0
  161.1777   41.4844  143.8449 O   0  0  0  0  0  0  0  0  0  0  0  0
  160.2488   43.6648  143.6990 C   0  0  1  0  0  0  0  0  0  0  0  0
  160.6990   45.0141  143.8115 O   0  0  0  0  0  0  0  0  0  0  0  0
  160.4878   43.1113  142.3067 C   0  0  1  0  0  0  0  0  0  0  0  0
  161.6803   43.6600  141.7388 O   0  0  0  0  0  0  0  0  0  0  0  0
  160.7173   41.6267  142.4984 C   0  0  2  0  0  0  0  0  0  0  0  0
  159.4297   40.9031  142.3552 N   0  0  0  0  0  0  0  0  0  0  0  0
  158.9128   40.0340  143.2463 C   0  0  0  0  0  0  0  0  0  0  0  0
  157.7098   39.5433  142.8375 N   0  0  0  0  0  0  0  0  0  0  0  0
  157.4324   40.1120  141.6535 C   0  0  0  0  0  0  0  0  0  0  0  0
  156.3317   40.0334  140.6595 C   0  0  0  0  0  0  0  0  0  0  0  0
  155.3243   39.3140  140.8319 O   0  0  0  0  0  0  0  0  0  0  0  0
  156.4370   40.7872  139.5638 N   0  0  0  0  0  0  0  0  0  0  0  0
  157.4950   41.5804  139.3353 C   0  0  0  0  0  0  0  0  0  0  0  0
  157.5039   42.2846  138.1936 N   0  0  0  0  0  0  0  0  0  0  0  0
  158.5401   41.6994  140.1874 N   0  0  0  0  0  0  0  0  0  0  0  0
  158.5685   41.0026  141.3428 C   0  0  0  0  0  0  0  0  0  0  0  0
  1  3  2  6  0  0  0
  1 32  1  0  0  0  0
  1  2  1  0  0  0  0
  1  4  1  0  0  0  0
  4  5  1  0  0  0  0
  6  5  1  6  0  0  0
  7  6  1  0  0  0  0
  8  6  1  0  0  0  0
  8 10  1  0  0  0  0
  8  9  1  1  0  0  0
 10 11  1  1  0  0  0
 12 13  1  6  0  0  0
 12  7  1  0  0  0  0
 12 10  1  0  0  0  0
 14 13  1  0  0  0  0
 15 16  1  0  0  0  0
 15 14  2  0  0  0  0
 16 23  2  0  0  0  0
 17 16  1  0  0  0  0
 17 19  1  0  0  0  0
 18 17  2  0  0  0  0
 19 20  2  0  0  0  0
 20 22  1  0  0  0  0
 20 21  1  0  0  0  0
 23 13  1  0  0  0  0
 23 22  1  0  0  0  0
 24 25  2  6  0  0  0
 24  9  1  0  0  0  0
 24 26  1  0  0  0  0
 27 28  1  0  0  0  0
 27 24  1  0  0  0  0
 29 30  1  6  0  0  0
 29 28  1  0  0  0  0
 31 32  1  6  0  0  0
 31 29  1  0  0  0  0
 33 34  1  1  0  0  0
 33 35  1  0  0  0  0
 33 31  1  0  0  0  0
 35 36  1  1  0  0  0
 35 30  1  0  0  0  0
 36 37  1  0  0  0  0
 38 37  2  0  0  0  0
 39 38  1  0  0  0  0
 40 41  2  0  0  0  0
 40 39  1  0  0  0  0
 42 40  1  0  0  0  0
 43 42  2  0  0  0  0
 43 45  1  0  0  0  0
 44 43  1  0  0  0  0
 45 46  1  0  0  0  0
 46 39  2  0  0  0  0
 46 36  1  0  0  0  0
M  END
>  <CHROM.1>
22.03050331,-12.48192942,157.15696130,43.56852428,143.96644361,-0.34741687
-0.16569919,1.00768044

>  <Name>
lig.pdb

>  <RI>
0

>  <Rbt.Current_Directory>
/home/itssahil/PROJECTS/Mol_Feturizer/New_Systems/rnas/4yb0

>  <Rbt.Executable>
rbdock ($Id: //depot/dev/client3/rdock/2013.1/src/exe/rbdock.cxx#4 $)

>  <Rbt.Library>
libRbt.so (2013.1, Build901 2013/11/27)

>  <Rbt.Parameter_File>
/export/apps/rDock/src/rDock_2013.1_src/data/scripts/dock_solv.prm

>  <Rbt.Receptor>
prm/pocket_docking_3.prm

>  <SCORE>
-53.5395

>  <SCORE.INTER>
-53.4356

>  <SCORE.INTER.CONST>
1

>  <SCORE.INTER.POLAR>
0

>  <SCORE.INTER.ROT>
2

>  <SCORE.INTER.SOLV>
30.8351

>  <SCORE.INTER.VDW>
-50.8355

>  <SCORE.INTER.norm>
-1.16164

>  <SCORE.INTRA>
-0.103881

>  <SCORE.INTRA.DIHEDRAL>
-0.0215101

>  <SCORE.INTRA.DIHEDRAL.0>
4.74153

>  <SCORE.INTRA.POLAR>
0

>  <SCORE.INTRA.POLAR.0>
0

>  <SCORE.INTRA.REPUL>
0

>  <SCORE.INTRA.REPUL.0>
0

>  <SCORE.INTRA.SOLV>
-0.00132984

>  <SCORE.INTRA.SOLV.lig_0>
-60.4375

>  <SCORE.INTRA.VDW>
-0.0924607

>  <SCORE.INTRA.VDW.0>
-1.83689

>  <SCORE.INTRA.norm>
-0.00225828

>  <SCORE.RESTR>
0

>  <SCORE.RESTR.CAVITY>
0

>  <SCORE.RESTR.norm>
0

>  <SCORE.SYSTEM>
0

>  <SCORE.SYSTEM.CONST>
0

>  <SCORE.SYSTEM.DIHEDRAL>
0

>  <SCORE.SYSTEM.SOLV>
0

>  <SCORE.SYSTEM.norm>
0

>  <SCORE.heavy>
46

>  <SCORE.norm>
-1.1639

>  <RMSD>
0.447

$$$$
lig.pdb
 OpenBabel11021811523D
libRbt.so/2013.1/901 2013/11/27
 46 52  0  0  0  0  0  0  0  0999 V2000
  159.6826   46.2238  143.4352 P   0  0  2  0  0  0  0  0  0  0  0  0
  160.3306   47.5597  143.7269 O   0  0  0  0  0  0  0  0  0  0  0  0
  159.1852   46.0045  142.0296 O   0  0  0  0  0  0  0  0  0  0  0  0
  158.4720   45.9272  144.4508 O   0  0  0  0  0  0  0  0  0  0  0  0
  158.2383   46.7457  145.5895 C   0  0  0  0  0  0  0  0  0  0  0  0
  157.3150   46.0314  146.5626 C   0  0  1  0  0  0  0  0  0  0  0  0
  156.0190   46.5992  146.4363 O   0  0  0  0  0  0  0  0  0  0  0  0
  157.1481   44.5343  146.3353 C   0  0  1  0  0  0  0  0  0  0  0  0
  157.9069   43.8172  147.2978 O   0  0  0  0  0  0  0  0  0  0  0  0
  155.6822   44.2959  146.6204 C   0  0  1  0  0  0  0  0  0  0  0  0
  155.5059   43.9935  148.0059 O   0  0  0  0  0  0  0  0  0  0  0  0
  155.0022   45.6110  146.3720 C   0  0  2  0  0  0  0  0  0  0  0  0
  154.4269   45.6111  145.0061 N   0  0  0  0  0  0  0  0  0  0  0  0
  155.0430   46.0545  143.8965 C   0  0  0  0  0  0  0  0  0  0  0  0
  154.2337   45.9266  142.8177 N   0  0  0  0  0  0  0  0  0  0  0  0
  153.0708   45.3916  143.2304 C   0  0  0  0  0  0  0  0  0  0  0  0
  151.7902   44.9941  142.5995 C   0  0  0  0  0  0  0  0  0  0  0  0
  151.6167   45.1512  141.3670 O   0  0  0  0  0  0  0  0  0  0  0  0
  150.8372   44.4699  143.3892 N   0  0  0  0  0  0  0  0  0  0  0  0
  151.0278   44.3049  144.7118 C   0  0  0  0  0  0  0  0  0  0  0  0
  150.0357   43.7678  145.4564 N   0  0  0  0  0  0  0  0  0  0  0  0
  152.1701   44.6459  145.3503 N   0  0  0  0  0  0  0  0  0  0  0  0
  153.2081   45.1847  144.6755 C   0  0  0  0  0  0  0  0  0  0  0  0
  158.1902   42.2214  147.2014 P   0  0  2  0  0  0  0  0  0  0  0  0
  156.8886   41.5016  146.9446 O   0  0  0  0  0  0  0  0  0  0  0  0
  159.0496   41.8743  148.4026 O   0  0  0  0  0  0  0  0  0  0  0  0
  159.0792   42.1083  145.8574 O   0  0  0  0  0  0  0  0  0  0  0  0
  160.4734   42.4103  145.8940 C   0  0  0  0  0  0  0  0  0  0  0  0
  161.0626   42.7068  144.5114 C   0  0  1  0  0  0  0  0  0  0  0  0
  161.1735   41.4878  143.7736 O   0  0  0  0  0  0  0  0  0  0  0  0
  160.2457   43.6701  143.6531 C   0  0  1  0  0  0  0  0  0  0  0  0
  160.6983   45.0181  143.7726 O   0  0  0  0  0  0  0  0  0  0  0  0
  160.4724   43.1276  142.2544 C   0  0  1  0  0  0  0  0  0  0  0  0
  161.6608   43.6798  141.6809 O   0  0  0  0  0  0  0  0  0  0  0  0
  160.7021   41.6413  142.4322 C   0  0  2  0  0  0  0  0  0  0  0  0
  159.4125   40.9202  142.2940 N   0  0  0  0  0  0  0  0  0  0  0  0
  158.8884   40.0667  143.1958 C   0  0  0  0  0  0  0  0  0  0  0  0
  157.6855   39.5740  142.7889 N   0  0  0  0  0  0  0  0  0  0  0  0
  157.4157   40.1255  141.5951 C   0  0  0  0  0  0  0  0  0  0  0  0
  156.3193   40.0356  140.5972 C   0  0  0  0  0  0  0  0  0  0  0  0
  155.3086   39.3225  140.7759 O   0  0  0  0  0  0  0  0  0  0  0  0
  156.4325   40.7721  139.4907 N   0  0  0  0  0  0  0  0  0  0  0  0
  157.4944   41.5581  139.2551 C   0  0  0  0  0  0  0  0  0  0  0  0
  157.5111   42.2446  138.1028 N   0  0  0  0  0  0  0  0  0  0  0  0
  158.5359   41.6863  140.1101 N   0  0  0  0  0  0  0  0  0  0  0  0
  158.5564   41.0073  141.2762 C   0  0  0  0  0  0  0  0  0  0  0  0
  1  3  2  6  0  0  0
  1 32  1  0  0  0  0
  1  2  1  0  0  0  0
  1  4  1  0  0  0  0
  4  5  1  0  0  0  0
  6  5  1  6  0  0  0
  7  6  1  0  0  0  0
  8  6  1  0  0  0  0
  8 10  1  0  0  0  0
  8  9  1  1  0  0  0
 10 11  1  1  0  0  0
 12 13  1  6  0  0  0
 12  7  1  0  0  0  0
 12 10  1  0  0  0  0
 14 13  1  0  0  0  0
 15 16  1  0  0  0  0
 15 14  2  0  0  0  0
 16 23  2  0  0  0  0
 17 16  1  0  0  0  0
 17 19  1  0  0  0  0
 18 17  2  0  0  0  0
 19 20  2  0  0  0  0
 20 22  1  0  0  0  0
 20 21  1  0  0  0  0
 23 13  1  0  0  0  0
 23 22  1  0  0  0  0
 24 25  2  6  0  0  0
 24  9  1  0  0  0  0
 24 26  1  0  0  0  0
 27 28  1  0  0  0  0
 27 24  1  0  0  0  0
 29 30  1  6  0  0  0
 29 28  1  0  0  0  0
 31 32  1  6  0  0  0
 31 29  1  0  0  0  0
 33 34  1  1  0  0  0
 33 35  1  0  0  0  0
 33 31  1  0  0  0  0
 35 36  1  1  0  0  0
 35 30  1  0  0  0  0
 36 37  1  0  0  0  0
 38 37  2  0  0  0  0
 39 38  1  0  0  0  0
 40 41  2  0  0  0  0
 40 39  1  0  0  0  0
 42 40  1  0  0  0  0
 43 42  2  0  0  0  0
 43 45  1  0  0  0  0
 44 43  1  0  0  0  0
 45 46  1  0  0  0  0
 46 39  2  0  0  0  0
 46 36  1  0  0  0  0
M  END
>  <CHROM.1>
23.35336841,-10.94186870,157.15741289,43.57522403,143.94288651,-0.37212377
-0.16583819,1.01305785

>  <Name>
lig.pdb

>  <RI>
0

>  <Rbt.Current_Directory>
/home/itssahil/PROJECTS/Mol_Feturizer/New_Systems/rnas/4yb0

>  <Rbt.Executable>
rbdock ($Id: //depot/dev/client3/rdock/2013.1/src/exe/rbdock.cxx#4 $)

>  <Rbt.Library>
libRbt.so (2013.1, Build901 2013/11/27)

>  <Rbt.Parameter_File>
/export/apps/rDock/src/rDock_2013.1_src/data/scripts/dock_solv.prm

>  <Rbt.Receptor>
prm/pocket_docking_2.prm

>  <SCORE>
-53.6459

>  <SCORE.INTER>
-53.5068

>  <SCORE.INTER.CONST>
1

>  <SCORE.INTER.POLAR>
0

>  <SCORE.INTER.ROT>
2

>  <SCORE.INTER.SOLV>
31.3112

>  <SCORE.INTER.VDW>
-51.0416

>  <SCORE.INTER.norm>
-1.16319

>  <SCORE.INTRA>
-0.139112

>  <SCORE.INTRA.DIHEDRAL>
-0.018747

>  <SCORE.INTRA.DIHEDRAL.0>
4.74153

>  <SCORE.INTRA.POLAR>
0

>  <SCORE.INTRA.POLAR.0>
0

>  <SCORE.INTRA.REPUL>
0

>  <SCORE.INTRA.REPUL.0>
0

>  <SCORE.INTRA.SOLV>
0.00585193

>  <SCORE.INTRA.SOLV.lig_0>
-60.4375

>  <SCORE.INTRA.VDW>
-0.132664

>  <SCORE.INTRA.VDW.0>
-1.83689

>  <SCORE.INTRA.norm>
-0.00302417

>  <SCORE.RESTR>
0

>  <SCORE.RESTR.CAVITY>
0

>  <SCORE.RESTR.norm>
0

>  <SCORE.SYSTEM>
0

>  <SCORE.SYSTEM.CONST>
0

>  <SCORE.SYSTEM.DIHEDRAL>
0

>  <SCORE.SYSTEM.SOLV>
0

>  <SCORE.SYSTEM.norm>
0

>  <SCORE.heavy>
46

>  <SCORE.norm>
-1.16622

>  <RMSD>
0.448

$$$$
lig.pdb
 OpenBabel11021811523D
libRbt.so/2013.1/901 2013/11/27
 46 52  0  0  0  0  0  0  0  0999 V2000
  159.6932   46.2371  143.4208 P   0  0  2  0  0  0  0  0  0  0  0  0
  160.3456   47.5699  143.7167 O   0  0  0  0  0  0  0  0  0  0  0  0
  159.2045   46.0199  142.0118 O   0  0  0  0  0  0  0  0  0  0  0  0
  158.4742   45.9466  144.4281 O   0  0  0  0  0  0  0  0  0  0  0  0
  158.2366   46.7664  145.5650 C   0  0  0  0  0  0  0  0  0  0  0  0
  157.3032   46.0568  146.5319 C   0  0  1  0  0  0  0  0  0  0  0  0
  156.0109   46.6308  146.3965 O   0  0  0  0  0  0  0  0  0  0  0  0
  157.1306   44.5605  146.3036 C   0  0  1  0  0  0  0  0  0  0  0  0
  157.8793   43.8399  147.2715 O   0  0  0  0  0  0  0  0  0  0  0  0
  155.6617   44.3292  146.5787 C   0  0  1  0  0  0  0  0  0  0  0  0
  155.4744   44.0280  147.9629 O   0  0  0  0  0  0  0  0  0  0  0  0
  154.9898   45.6475  146.3253 C   0  0  2  0  0  0  0  0  0  0  0  0
  154.4239   45.6501  144.9555 N   0  0  0  0  0  0  0  0  0  0  0  0
  155.0299   46.1364  143.8584 C   0  0  0  0  0  0  0  0  0  0  0  0
  154.2332   45.9971  142.7716 N   0  0  0  0  0  0  0  0  0  0  0  0
  153.0889   45.4109  143.1664 C   0  0  0  0  0  0  0  0  0  0  0  0
  151.8286   44.9764  142.5193 C   0  0  0  0  0  0  0  0  0  0  0  0
  151.6574   45.1487  141.2885 O   0  0  0  0  0  0  0  0  0  0  0  0
  150.8911   44.4022  143.2927 N   0  0  0  0  0  0  0  0  0  0  0  0
  151.0792   44.2210  144.6136 C   0  0  0  0  0  0  0  0  0  0  0  0
  150.1033   43.6333  145.3414 N   0  0  0  0  0  0  0  0  0  0  0  0
  152.2034   44.5938  145.2662 N   0  0  0  0  0  0  0  0  0  0  0  0
  153.2244   45.1837  144.6086 C   0  0  0  0  0  0  0  0  0  0  0  0
  158.1555   42.2427  147.1773 P   0  0  2  0  0  0  0  0  0  0  0  0
  156.8523   41.5292  146.9117 O   0  0  0  0  0  0  0  0  0  0  0  0
  159.0049   41.8917  148.3845 O   0  0  0  0  0  0  0  0  0  0  0  0
  159.0532   42.1251  145.8395 O   0  0  0  0  0  0  0  0  0  0  0  0
  160.4486   42.4203  145.8857 C   0  0  0  0  0  0  0  0  0  0  0  0
  161.0487   42.7137  144.5071 C   0  0  1  0  0  0  0  0  0  0  0  0
  161.1589   41.4940  143.7703 O   0  0  0  0  0  0  0  0  0  0  0  0
  160.2425   43.6808  143.6430 C   0  0  1  0  0  0  0  0  0  0  0  0
  160.7007   45.0266  143.7654 O   0  0  0  0  0  0  0  0  0  0  0  0
  160.4762   43.1369  142.2460 C   0  0  1  0  0  0  0  0  0  0  0  0
  161.6711   43.6832  141.6807 O   0  0  0  0  0  0  0  0  0  0  0  0
  160.6974   41.6495  142.4257 C   0  0  2  0  0  0  0  0  0  0  0  0
  159.4053   40.9346  142.2786 N   0  0  0  0  0  0  0  0  0  0  0  0
  158.8837   40.0633  143.1647 C   0  0  0  0  0  0  0  0  0  0  0  0
  157.6775   39.5823  142.7536 N   0  0  0  0  0  0  0  0  0  0  0  0
  157.4030   40.1598  141.5732 C   0  0  0  0  0  0  0  0  0  0  0  0
  156.3014   40.0940  140.5793 C   0  0  0  0  0  0  0  0  0  0  0  0
  155.2898   39.3796  140.7478 O   0  0  0  0  0  0  0  0  0  0  0  0
  156.4107   40.8538  139.4882 N   0  0  0  0  0  0  0  0  0  0  0  0
  157.4734   41.6420  139.2640 C   0  0  0  0  0  0  0  0  0  0  0  0
  157.4860   42.3530  138.1266 N   0  0  0  0  0  0  0  0  0  0  0  0
  158.5195   41.7494  140.1162 N   0  0  0  0  0  0  0  0  0  0  0  0
  158.5443   41.0455  141.2674 C   0  0  0  0  0  0  0  0  0  0  0  0
  1  3  2  6  0  0  0
  1 32  1  0  0  0  0
  1  2  1  0  0  0  0
  1  4  1  0  0  0  0
  4  5  1  0  0  0  0
  6  5  1  6  0  0  0
  7  6  1  0  0  0  0
  8  6  1  0  0  0  0
  8 10  1  0  0  0  0
  8  9  1  1  0  0  0
 10 11  1  1  0  0  0
 12 13  1  6  0  0  0
 12  7  1  0  0  0  0
 12 10  1  0  0  0  0
 14 13  1  0  0  0  0
 15 16  1  0  0  0  0
 15 14  2  0  0  0  0
 16 23  2  0  0  0  0
 17 16  1  0  0  0  0
 17 19  1  0  0  0  0
 18 17  2  0  0  0  0
 19 20  2  0  0  0  0
 20 22  1  0  0  0  0
 20 21  1  0  0  0  0
 23 13  1  0  0  0  0
 23 22  1  0  0  0  0
 24 25  2  6  0  0  0
 24  9  1  0  0  0  0
 24 26  1  0  0  0  0
 27 28  1  0  0  0  0
 27 24  1  0  0  0  0
 29 30  1  6  0  0  0
 29 28  1  0  0  0  0
 31 32  1  6  0  0  0
 31 29  1  0  0  0  0
 33 34  1  1  0  0  0
 33 35  1  0  0  0  0
 33 31  1  0  0  0  0
 35 36  1  1  0  0  0
 35 30  1  0  0  0  0
 36 37  1  0  0  0  0
 38 37  2  0  0  0  0
 39 38  1  0  0  0  0
 40 41  2  0  0  0  0
 40 39  1  0  0  0  0
 42 40  1  0  0  0  0
 43 42  2  0  0  0  0
 43 45  1  0  0  0  0
 44 43  1  0  0  0  0
 45 46  1  0  0  0  0
 46 39  2  0  0  0  0
 46 36  1  0  0  0  0
M  END
>  <CHROM.1>
20.68673996,-12.36420267,157.15368857,43.59325029,143.91282781,-0.34949376
-0.16491220,1.01307368

>  <Name>
lig.pdb

>  <RI>
0

>  <Rbt.Current_Directory>
/home/itssahil/PROJECTS/Mol_Feturizer/New_Systems/rnas/4yb0

>  <Rbt.Executable>
rbdock ($Id: //depot/dev/client3/rdock/2013.1/src/exe/rbdock.cxx#4 $)

>  <Rbt.Library>
libRbt.so (2013.1, Build901 2013/11/27)

>  <Rbt.Parameter_File>
/export/apps/rDock/src/rDock_2013.1_src/data/scripts/dock_solv.prm

>  <Rbt.Receptor>
prm/pocket_docking_3.prm

>  <SCORE>
-53.5659

>  <SCORE.INTER>
-53.4718

>  <SCORE.INTER.CONST>
1

>  <SCORE.INTER.POLAR>
0

>  <SCORE.INTER.ROT>
2

>  <SCORE.INTER.SOLV>
31.0219

>  <SCORE.INTER.VDW>
-50.9218

>  <SCORE.INTER.norm>
-1.16243

>  <SCORE.INTRA>
-0.0941021

>  <SCORE.INTRA.DIHEDRAL>
-0.0198694

>  <SCORE.INTRA.DIHEDRAL.0>
4.74153

>  <SCORE.INTRA.POLAR>
0

>  <SCORE.INTRA.POLAR.0>
0

>  <SCORE.INTRA.REPUL>
0

>  <SCORE.INTRA.REPUL.0>
0

>  <SCORE.INTRA.SOLV>
-0.0030522

>  <SCORE.INTRA.SOLV.lig_0>
-60.4375

>  <SCORE.INTRA.VDW>
-0.0826412

>  <SCORE.INTRA.VDW.0>
-1.83689

>  <SCORE.INTRA.norm>
-0.0020457

>  <SCORE.RESTR>
0

>  <SCORE.RESTR.CAVITY>
0

>  <SCORE.RESTR.norm>
0

>  <SCORE.SYSTEM>
0

>  <SCORE.SYSTEM.CONST>
0

>  <SCORE.SYSTEM.DIHEDRAL>
0

>  <SCORE.SYSTEM.SOLV>
0

>  <SCORE.SYSTEM.norm>
0

>  <SCORE.heavy>
46

>  <SCORE.norm>
-1.16448

>  <RMSD>
0.448

$$$$
lig.pdb
 OpenBabel11021811523D
libRbt.so/2013.1/901 2013/11/27
 46 52  0  0  0  0  0  0  0  0999 V2000
  159.6925   46.2117  143.4475 P   0  0  2  0  0  0  0  0  0  0  0  0
  160.3472   47.5435  143.7429 O   0  0  0  0  0  0  0  0  0  0  0  0
  159.2050   45.9941  142.0382 O   0  0  0  0  0  0  0  0  0  0  0  0
  158.4719   45.9244  144.4538 O   0  0  0  0  0  0  0  0  0  0  0  0
  158.2347   46.7458  145.5896 C   0  0  0  0  0  0  0  0  0  0  0  0
  157.2989   46.0388  146.5561 C   0  0  1  0  0  0  0  0  0  0  0  0
  156.0078   46.6152  146.4188 O   0  0  0  0  0  0  0  0  0  0  0  0
  157.1237   44.5427  146.3291 C   0  0  1  0  0  0  0  0  0  0  0  0
  157.8699   43.8216  147.2985 O   0  0  0  0  0  0  0  0  0  0  0  0
  155.6540   44.3145  146.6028 C   0  0  1  0  0  0  0  0  0  0  0  0
  155.4646   44.0149  147.9871 O   0  0  0  0  0  0  0  0  0  0  0  0
  154.9849   45.6338  146.3474 C   0  0  2  0  0  0  0  0  0  0  0  0
  154.4205   45.6362  144.9770 N   0  0  0  0  0  0  0  0  0  0  0  0
  155.0314   46.1142  143.8789 C   0  0  0  0  0  0  0  0  0  0  0  0
  154.2348   45.9774  142.7918 N   0  0  0  0  0  0  0  0  0  0  0  0
  153.0856   45.4013  143.1873 C   0  0  0  0  0  0  0  0  0  0  0  0
  151.8227   44.9743  142.5402 C   0  0  0  0  0  0  0  0  0  0  0  0
  151.6541   45.1438  141.3087 O   0  0  0  0  0  0  0  0  0  0  0  0
  150.8801   44.4099  143.3144 N   0  0  0  0  0  0  0  0  0  0  0  0
  151.0653   44.2316  144.6361 C   0  0  0  0  0  0  0  0  0  0  0  0
  150.0842   43.6539  145.3648 N   0  0  0  0  0  0  0  0  0  0  0  0
  152.1916   44.5979  145.2888 N   0  0  0  0  0  0  0  0  0  0  0  0
  153.2178   45.1778  144.6303 C   0  0  0  0  0  0  0  0  0  0  0  0
  158.1432   42.2238  147.2061 P   0  0  2  0  0  0  0  0  0  0  0  0
  156.8389   41.5125  146.9397 O   0  0  0  0  0  0  0  0  0  0  0  0
  158.9906   41.8723  148.4145 O   0  0  0  0  0  0  0  0  0  0  0  0
  159.0421   42.1032  145.8694 O   0  0  0  0  0  0  0  0  0  0  0  0
  160.4380   42.3958  145.9168 C   0  0  0  0  0  0  0  0  0  0  0  0
  161.0402   42.6867  144.5386 C   0  0  1  0  0  0  0  0  0  0  0  0
  161.1488   41.4661  143.8030 O   0  0  0  0  0  0  0  0  0  0  0  0
  160.2367   43.6546  143.6727 C   0  0  1  0  0  0  0  0  0  0  0  0
  160.6974   44.9996  143.7943 O   0  0  0  0  0  0  0  0  0  0  0  0
  160.4709   43.1089  142.2765 C   0  0  1  0  0  0  0  0  0  0  0  0
  161.6675   43.6524  141.7119 O   0  0  0  0  0  0  0  0  0  0  0  0
  160.6891   41.6213  142.4578 C   0  0  2  0  0  0  0  0  0  0  0  0
  159.3958   40.9087  142.3100 N   0  0  0  0  0  0  0  0  0  0  0  0
  158.8610   40.0563  143.2066 C   0  0  0  0  0  0  0  0  0  0  0  0
  157.6575   39.5722  142.7912 N   0  0  0  0  0  0  0  0  0  0  0  0
  157.3982   40.1284  141.5972 C   0  0  0  0  0  0  0  0  0  0  0  0
  156.3073   40.0481  140.5926 C   0  0  0  0  0  0  0  0  0  0  0  0
  155.2911   39.3409  140.7635 O   0  0  0  0  0  0  0  0  0  0  0  0
  156.4317   40.7866  139.4887 N   0  0  0  0  0  0  0  0  0  0  0  0
  157.5000   41.5664  139.2614 C   0  0  0  0  0  0  0  0  0  0  0  0
  157.5279   42.2557  138.1110 N   0  0  0  0  0  0  0  0  0  0  0  0
  158.5371   41.6859  140.1229 N   0  0  0  0  0  0  0  0  0  0  0  0
  158.5464   41.0038  141.2874 C   0  0  0  0  0  0  0  0  0  0  0  0
  1  3  2  6  0  0  0
  1 32  1  0  0  0  0
  1  2  1  0  0  0  0
  1  4  1  0  0  0  0
  4  5  1  0  0  0  0
  6  5  1  6  0  0  0
  7  6  1  0  0  0  0
  8  6  1  0  0  0  0
  8 10  1  0  0  0  0
  8  9  1  1  0  0  0
 10 11  1  1  0  0  0
 12 13  1  6  0  0  0
 12  7  1  0  0  0  0
 12 10  1  0  0  0  0
 14 13  1  0  0  0  0
 15 16  1  0  0  0  0
 15 14  2  0  0  0  0
 16 23  2  0  0  0  0
 17 16  1  0  0  0  0
 17 19  1  0  0  0  0
 18 17  2  0  0  0  0
 19 20  2  0  0  0  0
 20 22  1  0  0  0  0
 20 21  1  0  0  0  0
 23 13  1  0  0  0  0
 23 22  1  0  0  0  0
 24 25  2  6  0  0  0
 24  9  1  0  0  0  0
 24 26  1  0  0  0  0
 27 28  1  0  0  0  0
 27 24  1  0  0  0  0
 29 30  1  6  0  0  0
 29 28  1  0  0  0  0
 31 32  1  6  0  0  0
 31 29  1  0  0  0  0
 33 34  1  1  0  0  0
 33 35  1  0  0  0  0
 33 31  1  0  0  0  0
 35 36  1  1  0  0  0
 35 30  1  0  0  0  0
 36 37  1  0  0  0  0
 38 37  2  0  0  0  0
 39 38  1  0  0  0  0
 40 41  2  0  0  0  0
 40 39  1  0  0  0  0
 42 40  1  0  0  0  0
 43 42  2  0  0  0  0
 43 45  1  0  0  0  0
 44 43  1  0  0  0  0
 45 46  1  0  0  0  0
 46 39  2  0  0  0  0
 46 36  1  0  0  0  0
M  END
>  <CHROM.1>
21.04340633,-11.18308916,157.14970828,43.57014143,143.93655192,-0.36120659
-0.16750418,1.01034999

>  <Name>
lig.pdb

>  <RI>
0

>  <Rbt.Current_Directory>
/home/itssahil/PROJECTS/Mol_Feturizer/New_Systems/rnas/4yb0

>  <Rbt.Executable>
rbdock ($Id: //depot/dev/client3/rdock/2013.1/src/exe/rbdock.cxx#4 $)

>  <Rbt.Library>
libRbt.so (2013.1, Build901 2013/11/27)

>  <Rbt.Parameter_File>
/export/apps/rDock/src/rDock_2013.1_src/data/scripts/dock_solv.prm

>  <Rbt.Receptor>
prm/pocket_docking_5.prm

>  <SCORE>
-53.6188

>  <SCORE.INTER>
-53.5168

>  <SCORE.INTER.CONST>
1

>  <SCORE.INTER.POLAR>
0

>  <SCORE.INTER.ROT>
2

>  <SCORE.INTER.SOLV>
31.0749

>  <SCORE.INTER.VDW>
-50.9695

>  <SCORE.INTER.norm>
-1.16341

>  <SCORE.INTRA>
-0.101961

>  <SCORE.INTRA.DIHEDRAL>
-0.0172719

>  <SCORE.INTRA.DIHEDRAL.0>
4.74153

>  <SCORE.INTRA.POLAR>
0

>  <SCORE.INTRA.POLAR.0>
0

>  <SCORE.INTRA.REPUL>
0

>  <SCORE.INTRA.REPUL.0>
0

>  <SCORE.INTRA.SOLV>
0.00174727

>  <SCORE.INTRA.SOLV.lig_0>
-60.4375

>  <SCORE.INTRA.VDW>
-0.0941984

>  <SCORE.INTRA.VDW.0>
-1.83689

>  <SCORE.INTRA.norm>
-0.00221654

>  <SCORE.RESTR>
0

>  <SCORE.RESTR.CAVITY>
0

>  <SCORE.RESTR.norm>
0

>  <SCORE.SYSTEM>
0

>  <SCORE.SYSTEM.CONST>
0

>  <SCORE.SYSTEM.DIHEDRAL>
0

>  <SCORE.SYSTEM.SOLV>
0

>  <SCORE.SYSTEM.norm>
0

>  <SCORE.heavy>
46

>  <SCORE.norm>
-1.16563

>  <RMSD>
0.449

$$$$
lig.pdb
 OpenBabel11021811523D
libRbt.so/2013.1/901 2013/11/27
 46 52  0  0  0  0  0  0  0  0999 V2000
  159.6522   46.2630  143.4635 P   0  0  2  0  0  0  0  0  0  0  0  0
  160.2910   47.6001  143.7697 O   0  0  0  0  0  0  0  0  0  0  0  0
  159.1608   46.0538  142.0543 O   0  0  0  0  0  0  0  0  0  0  0  0
  158.4402   45.9495  144.4724 O   0  0  0  0  0  0  0  0  0  0  0  0
  158.1978   46.7560  145.6178 C   0  0  0  0  0  0  0  0  0  0  0  0
  157.2759   46.0269  146.5813 C   0  0  1  0  0  0  0  0  0  0  0  0
  155.9768   46.5879  146.4560 O   0  0  0  0  0  0  0  0  0  0  0  0
  157.1189   44.5310  146.3394 C   0  0  1  0  0  0  0  0  0  0  0  0
  157.8790   43.8096  147.2978 O   0  0  0  0  0  0  0  0  0  0  0  0
  155.6536   44.2810  146.6175 C   0  0  1  0  0  0  0  0  0  0  0  0
  155.4748   43.9646  147.9995 O   0  0  0  0  0  0  0  0  0  0  0  0
  154.9664   45.5941  146.3791 C   0  0  2  0  0  0  0  0  0  0  0  0
  154.3954   45.6034  145.0114 N   0  0  0  0  0  0  0  0  0  0  0  0
  155.0098   46.0669  143.9091 C   0  0  0  0  0  0  0  0  0  0  0  0
  154.2055   45.9422  142.8262 N   0  0  0  0  0  0  0  0  0  0  0  0
  153.0477   45.3888  143.2288 C   0  0  0  0  0  0  0  0  0  0  0  0
  151.7739   44.9837  142.5890 C   0  0  0  0  0  0  0  0  0  0  0  0
  151.6025   45.1531  141.3578 O   0  0  0  0  0  0  0  0  0  0  0  0
  150.8246   44.4391  143.3693 N   0  0  0  0  0  0  0  0  0  0  0  0
  151.0129   44.2609  144.6906 C   0  0  0  0  0  0  0  0  0  0  0  0
  150.0247   43.7036  145.4256 N   0  0  0  0  0  0  0  0  0  0  0  0
  152.1491   44.6079  145.3368 N   0  0  0  0  0  0  0  0  0  0  0  0
  153.1827   45.1667  144.6718 C   0  0  0  0  0  0  0  0  0  0  0  0
  158.1725   42.2166  147.1874 P   0  0  2  0  0  0  0  0  0  0  0  0
  156.8762   41.4912  146.9197 O   0  0  0  0  0  0  0  0  0  0  0  0
  159.0301   41.8636  148.3882 O   0  0  0  0  0  0  0  0  0  0  0  0
  159.0665   42.1215  145.8454 O   0  0  0  0  0  0  0  0  0  0  0  0
  160.4587   42.4317  145.8894 C   0  0  0  0  0  0  0  0  0  0  0  0
  161.0505   42.7447  144.5115 C   0  0  1  0  0  0  0  0  0  0  0  0
  161.1714   41.5333  143.7628 O   0  0  0  0  0  0  0  0  0  0  0  0
  160.2305   43.7110  143.6595 C   0  0  1  0  0  0  0  0  0  0  0  0
  160.6743   45.0605  143.7930 O   0  0  0  0  0  0  0  0  0  0  0  0
  160.4650   43.1829  142.2566 C   0  0  1  0  0  0  0  0  0  0  0  0
  161.6518   43.7477  141.6922 O   0  0  0  0  0  0  0  0  0  0  0  0
  160.7033   41.6965  142.4213 C   0  0  2  0  0  0  0  0  0  0  0  0
  159.4186   40.9688  142.2721 N   0  0  0  0  0  0  0  0  0  0  0  0
  158.9136   40.0775  143.1480 C   0  0  0  0  0  0  0  0  0  0  0  0
  157.7102   39.5888  142.7378 N   0  0  0  0  0  0  0  0  0  0  0  0
  157.4205   40.1815  141.5686 C   0  0  0  0  0  0  0  0  0  0  0  0
  156.3126   40.1183  140.5816 C   0  0  0  0  0  0  0  0  0  0  0  0
  155.3106   39.3894  140.7460 O   0  0  0  0  0  0  0  0  0  0  0  0
  156.4051   40.8963  139.5019 N   0  0  0  0  0  0  0  0  0  0  0  0
  157.4569   41.7004  139.2826 C   0  0  0  0  0  0  0  0  0  0  0  0
  157.4530   42.4293  138.1565 N   0  0  0  0  0  0  0  0  0  0  0  0
  158.5078   41.8068  140.1291 N   0  0  0  0  0  0  0  0  0  0  0  0
  158.5491   41.0853  141.2688 C   0  0  0  0  0  0  0  0  0  0  0  0
  1  3  2  6  0  0  0
  1 32  1  0  0  0  0
  1  2  1  0  0  0  0
  1  4  1  0  0  0  0
  4  5  1  0  0  0  0
  6  5  1  6  0  0  0
  7  6  1  0  0  0  0
  8  6  1  0  0  0  0
  8 10  1  0  0  0  0
  8  9  1  1  0  0  0
 10 11  1  1  0  0  0
 12 13  1  6  0  0  0
 12  7  1  0  0  0  0
 12 10  1  0  0  0  0
 14 13  1  0  0  0  0
 15 16  1  0  0  0  0
 15 14  2  0  0  0  0
 16 23  2  0  0  0  0
 17 16  1  0  0  0  0
 17 19  1  0  0  0  0
 18 17  2  0  0  0  0
 19 20  2  0  0  0  0
 20 22  1  0  0  0  0
 20 21  1  0  0  0  0
 23 13  1  0  0  0  0
 23 22  1  0  0  0  0
 24 25  2  6  0  0  0
 24  9  1  0  0  0  0
 24 26  1  0  0  0  0
 27 28  1  0  0  0  0
 27 24  1  0  0  0  0
 29 30  1  6  0  0  0
 29 28  1  0  0  0  0
 31 32  1  6  0  0  0
 31 29  1  0  0  0  0
 33 34  1  1  0  0  0
 33 35  1  0  0  0  0
 33 31  1  0  0  0  0
 35 36  1  1  0  0  0
 35 30  1  0  0  0  0
 36 37  1  0  0  0  0
 38 37  2  0  0  0  0
 39 38  1  0  0  0  0
 40 41  2  0  0  0  0
 40 39  1  0  0  0  0
 42 40  1  0  0  0  0
 43 42  2  0  0  0  0
 43 45  1  0  0  0  0
 44 43  1  0  0  0  0
 45 46  1  0  0  0  0
 46 39  2  0  0  0  0
 46 36  1  0  0  0  0
M  END
>  <CHROM.1>
23.00698253,-12.77556790,157.13787894,43.59993515,143.94274648,-0.34904654
-0.16235098,1.02637713

>  <Name>
lig.pdb

>  <RI>
0

>  <Rbt.Current_Directory>
/home/itssahil/PROJECTS/Mol_Feturizer/New_Systems/rnas/4yb0

>  <Rbt.Executable>
rbdock ($Id: //depot/dev/client3/rdock/2013.1/src/exe/rbdock.cxx#4 $)

>  <Rbt.Library>
libRbt.so (2013.1, Build901 2013/11/27)

>  <Rbt.Parameter_File>
/export/apps/rDock/src/rDock_2013.1_src/data/scripts/dock_solv.prm

>  <Rbt.Receptor>
prm/pocket_docking_3.prm

>  <SCORE>
-53.6105

>  <SCORE.INTER>
-53.5008

>  <SCORE.INTER.CONST>
1

>  <SCORE.INTER.POLAR>
0

>  <SCORE.INTER.ROT>
2

>  <SCORE.INTER.SOLV>
31.2142

>  <SCORE.INTER.VDW>
-51.0052

>  <SCORE.INTER.norm>
-1.16306

>  <SCORE.INTRA>
-0.109716

>  <SCORE.INTRA.DIHEDRAL>
-0.0230762

>  <SCORE.INTRA.DIHEDRAL.0>
4.74153

>  <SCORE.INTRA.POLAR>
0

>  <SCORE.INTRA.POLAR.0>
0

>  <SCORE.INTRA.REPUL>
0

>  <SCORE.INTRA.REPUL.0>
0

>  <SCORE.INTRA.SOLV>
-0.000831384

>  <SCORE.INTRA.SOLV.lig_0>
-60.4375

>  <SCORE.INTRA.VDW>
-0.0977619

>  <SCORE.INTRA.VDW.0>
-1.83689

>  <SCORE.INTRA.norm>
-0.00238512

>  <SCORE.RESTR>
0

>  <SCORE.RESTR.CAVITY>
0

>  <SCORE.RESTR.norm>
0

>  <SCORE.SYSTEM>
0

>  <SCORE.SYSTEM.CONST>
0

>  <SCORE.SYSTEM.DIHEDRAL>
0

>  <SCORE.SYSTEM.SOLV>
0

>  <SCORE.SYSTEM.norm>
0

>  <SCORE.heavy>
46

>  <SCORE.norm>
-1.16544

>  <RMSD>
0.450

$$$$
lig.pdb
 OpenBabel11021811523D
libRbt.so/2013.1/901 2013/11/27
 46 52  0  0  0  0  0  0  0  0999 V2000
  159.7022   46.2735  143.4716 P   0  0  2  0  0  0  0  0  0  0  0  0
  160.3475   47.6054  143.7866 O   0  0  0  0  0  0  0  0  0  0  0  0
  159.2231   46.0705  142.0573 O   0  0  0  0  0  0  0  0  0  0  0  0
  158.4782   45.9668  144.4680 O   0  0  0  0  0  0  0  0  0  0  0  0
  158.2304   46.7728  145.6126 C   0  0  0  0  0  0  0  0  0  0  0  0
  157.2940   46.0485  146.5656 C   0  0  1  0  0  0  0  0  0  0  0  0
  156.0002   46.6189  146.4288 O   0  0  0  0  0  0  0  0  0  0  0  0
  157.1288   44.5542  146.3193 C   0  0  1  0  0  0  0  0  0  0  0  0
  157.8744   43.8256  147.2836 O   0  0  0  0  0  0  0  0  0  0  0  0
  155.6591   44.3141  146.5827 C   0  0  1  0  0  0  0  0  0  0  0  0
  155.4645   43.9964  147.9622 O   0  0  0  0  0  0  0  0  0  0  0  0
  154.9835   45.6325  146.3401 C   0  0  2  0  0  0  0  0  0  0  0  0
  154.4260   45.6484  144.9669 N   0  0  0  0  0  0  0  0  0  0  0  0
  155.0468   46.1274  143.8749 C   0  0  0  0  0  0  0  0  0  0  0  0
  154.2544   46.0046  142.7830 N   0  0  0  0  0  0  0  0  0  0  0  0
  153.0980   45.4367  143.1693 C   0  0  0  0  0  0  0  0  0  0  0  0
  151.8345   45.0253  142.5134 C   0  0  0  0  0  0  0  0  0  0  0  0
  151.6736   45.2038  141.2820 O   0  0  0  0  0  0  0  0  0  0  0  0
  150.8829   44.4649  143.2794 N   0  0  0  0  0  0  0  0  0  0  0  0
  151.0598   44.2769  144.6009 C   0  0  0  0  0  0  0  0  0  0  0  0
  150.0698   43.7038  145.3212 N   0  0  0  0  0  0  0  0  0  0  0  0
  152.1862   44.6288  145.2614 N   0  0  0  0  0  0  0  0  0  0  0  0
  153.2210   45.2032  144.6115 C   0  0  0  0  0  0  0  0  0  0  0  0
  158.1576   42.2307  147.1730 P   0  0  2  0  0  0  0  0  0  0  0  0
  156.8589   41.5151  146.8913 O   0  0  0  0  0  0  0  0  0  0  0  0
  159.0009   41.8693  148.3814 O   0  0  0  0  0  0  0  0  0  0  0  0
  159.0639   42.1318  145.8396 O   0  0  0  0  0  0  0  0  0  0  0  0
  160.4578   42.4320  145.8977 C   0  0  0  0  0  0  0  0  0  0  0  0
  161.0652   42.7434  144.5263 C   0  0  1  0  0  0  0  0  0  0  0  0
  161.1847   41.5326  143.7764 O   0  0  0  0  0  0  0  0  0  0  0  0
  160.2604   43.7171  143.6682 C   0  0  1  0  0  0  0  0  0  0  0  0
  160.7125   45.0632  143.8087 O   0  0  0  0  0  0  0  0  0  0  0  0
  160.5049   43.1900  142.2666 C   0  0  1  0  0  0  0  0  0  0  0  0
  161.7010   43.7474  141.7149 O   0  0  0  0  0  0  0  0  0  0  0  0
  160.7309   41.7016  142.4308 C   0  0  2  0  0  0  0  0  0  0  0  0
  159.4427   40.9833  142.2677 N   0  0  0  0  0  0  0  0  0  0  0  0
  158.8998   40.1304  143.1589 C   0  0  0  0  0  0  0  0  0  0  0  0
  157.7038   39.6405  142.7290 N   0  0  0  0  0  0  0  0  0  0  0  0
  157.4578   40.1933  141.5306 C   0  0  0  0  0  0  0  0  0  0  0  0
  156.3803   40.1063  140.5121 C   0  0  0  0  0  0  0  0  0  0  0  0
  155.3649   39.3953  140.6711 O   0  0  0  0  0  0  0  0  0  0  0  0
  156.5160   40.8432  139.4083 N   0  0  0  0  0  0  0  0  0  0  0  0
  157.5838   41.6270  139.1934 C   0  0  0  0  0  0  0  0  0  0  0  0
  157.6239   42.3142  138.0421 N   0  0  0  0  0  0  0  0  0  0  0  0
  158.6092   41.7526  140.0680 N   0  0  0  0  0  0  0  0  0  0  0  0
  158.6062   41.0728  141.2339 C   0  0  0  0  0  0  0  0  0  0  0  0
  1  3  2  6  0  0  0
  1 32  1  0  0  0  0
  1  2  1  0  0  0  0
  1  4  1  0  0  0  0
  4  5  1  0  0  0  0
  6  5  1  6  0  0  0
  7  6  1  0  0  0  0
  8  6  1  0  0  0  0
  8 10  1  0  0  0  0
  8  9  1  1  0  0  0
 10 11  1  1  0  0  0
 12 13  1  6  0  0  0
 12  7  1  0  0  0  0
 12 10  1  0  0  0  0
 14 13  1  0  0  0  0
 15 16  1  0  0  0  0
 15 14  2  0  0  0  0
 16 23  2  0  0  0  0
 17 16  1  0  0  0  0
 17 19  1  0  0  0  0
 18 17  2  0  0  0  0
 19 20  2  0  0  0  0
 20 22  1  0  0  0  0
 20 21  1  0  0  0  0
 23 13  1  0  0  0  0
 23 22  1  0  0  0  0
 24 25  2  6  0  0  0
 24  9  1  0  0  0  0
 24 26  1  0  0  0  0
 27 28  1  0  0  0  0
 27 24  1  0  0  0  0
 29 30  1  6  0  0  0
 29 28  1  0  0  0  0
 31 32  1  6  0  0  0
 31 29  1  0  0  0  0
 33 34  1  1  0  0  0
 33 35  1  0  0  0  0
 33 31  1  0  0  0  0
 35 36  1  1  0  0  0
 35 30  1  0  0  0  0
 36 37  1  0  0  0  0
 38 37  2  0  0  0  0
 39 38  1  0  0  0  0
 40 41  2  0  0  0  0
 40 39  1  0  0  0  0
 42 40  1  0  0  0  0
 43 42  2  0  0  0  0
 43 45  1  0  0  0  0
 44 43  1  0  0  0  0
 45 46  1  0  0  0  0
 46 39  2  0  0  0  0
 46 36  1  0  0  0  0
M  END
>  <CHROM.1>
21.97701193,-10.24259077,157.17307735,43.61216762,143.91373539,-0.36451611
-0.16782691,1.02307672

>  <Name>
lig.pdb

>  <RI>
0

>  <Rbt.Current_Directory>
/home/itssahil/PROJECTS/Mol_Feturizer/New_Systems/rnas/4yb0

>  <Rbt.Executable>
rbdock ($Id: //depot/dev/client3/rdock/2013.1/src/exe/rbdock.cxx#4 $)

>  <Rbt.Library>
libRbt.so (2013.1, Build901 2013/11/27)

>  <Rbt.Parameter_File>
/export/apps/rDock/src/rDock_2013.1_src/data/scripts/dock_solv.prm

>  <Rbt.Receptor>
prm/pocket_docking_4.prm

>  <SCORE>
-53.5943

>  <SCORE.INTER>
-53.4818

>  <SCORE.INTER.CONST>
1

>  <SCORE.INTER.POLAR>
0

>  <SCORE.INTER.ROT>
2

>  <SCORE.INTER.SOLV>
31.0256

>  <SCORE.INTER.VDW>
-50.9297

>  <SCORE.INTER.norm>
-1.16265

>  <SCORE.INTRA>
-0.112561

>  <SCORE.INTRA.DIHEDRAL>
-0.01573

>  <SCORE.INTRA.DIHEDRAL.0>
4.74153

>  <SCORE.INTRA.POLAR>
0

>  <SCORE.INTRA.POLAR.0>
0

>  <SCORE.INTRA.REPUL>
0

>  <SCORE.INTRA.REPUL.0>
0

>  <SCORE.INTRA.SOLV>
0.00704449

>  <SCORE.INTRA.SOLV.lig_0>
-60.4375

>  <SCORE.INTRA.VDW>
-0.108218

>  <SCORE.INTRA.VDW.0>
-1.83689

>  <SCORE.INTRA.norm>
-0.00244698

>  <SCORE.RESTR>
0

>  <SCORE.RESTR.CAVITY>
0

>  <SCORE.RESTR.norm>
0

>  <SCORE.SYSTEM>
0

>  <SCORE.SYSTEM.CONST>
0

>  <SCORE.SYSTEM.DIHEDRAL>
0

>  <SCORE.SYSTEM.SOLV>
0

>  <SCORE.SYSTEM.norm>
0

>  <SCORE.heavy>
46

>  <SCORE.norm>
-1.16509

>  <RMSD>
0.450

$$$$
lig.pdb
 OpenBabel11021811523D
libRbt.so/2013.1/901 2013/11/27
 46 52  0  0  0  0  0  0  0  0999 V2000
  159.6679   46.2532  143.4246 P   0  0  2  0  0  0  0  0  0  0  0  0
  160.3069   47.5938  143.7146 O   0  0  0  0  0  0  0  0  0  0  0  0
  159.1692   46.0301  142.0201 O   0  0  0  0  0  0  0  0  0  0  0  0
  158.4616   45.9482  144.4429 O   0  0  0  0  0  0  0  0  0  0  0  0
  158.2245   46.7653  145.5818 C   0  0  0  0  0  0  0  0  0  0  0  0
  157.3084   46.0446  146.5571 C   0  0  1  0  0  0  0  0  0  0  0  0
  156.0081   46.6031  146.4334 O   0  0  0  0  0  0  0  0  0  0  0  0
  157.1518   44.5463  146.3304 C   0  0  1  0  0  0  0  0  0  0  0  0
  157.9177   43.8349  147.2915 O   0  0  0  0  0  0  0  0  0  0  0  0
  155.6882   44.2975  146.6187 C   0  0  1  0  0  0  0  0  0  0  0  0
  155.5171   43.9942  148.0046 O   0  0  0  0  0  0  0  0  0  0  0  0
  154.9983   45.6076  146.3715 C   0  0  2  0  0  0  0  0  0  0  0  0
  154.4201   45.6032  145.0068 N   0  0  0  0  0  0  0  0  0  0  0  0
  155.0358   46.0382  143.8936 C   0  0  0  0  0  0  0  0  0  0  0  0
  154.2236   45.9084  142.8172 N   0  0  0  0  0  0  0  0  0  0  0  0
  153.0593   45.3807  143.2351 C   0  0  0  0  0  0  0  0  0  0  0  0
  151.7756   44.9857  142.6090 C   0  0  0  0  0  0  0  0  0  0  0  0
  151.6002   45.1372  141.3760 O   0  0  0  0  0  0  0  0  0  0  0  0
  150.8220   44.4698  143.4033 N   0  0  0  0  0  0  0  0  0  0  0  0
  151.0146   44.3107  144.7264 C   0  0  0  0  0  0  0  0  0  0  0  0
  150.0217   43.7819  145.4758 N   0  0  0  0  0  0  0  0  0  0  0  0
  152.1598   44.6499  145.3607 N   0  0  0  0  0  0  0  0  0  0  0  0
  153.1987   45.1806  144.6809 C   0  0  0  0  0  0  0  0  0  0  0  0
  158.2122   42.2411  147.1949 P   0  0  2  0  0  0  0  0  0  0  0  0
  156.9153   41.5120  146.9410 O   0  0  0  0  0  0  0  0  0  0  0  0
  159.0766   41.9004  148.3943 O   0  0  0  0  0  0  0  0  0  0  0  0
  159.0992   42.1341  145.8490 O   0  0  0  0  0  0  0  0  0  0  0  0
  160.4913   42.4460  145.8826 C   0  0  0  0  0  0  0  0  0  0  0  0
  161.0753   42.7465  144.4987 C   0  0  1  0  0  0  0  0  0  0  0  0
  161.1935   41.5281  143.7609 O   0  0  0  0  0  0  0  0  0  0  0  0
  160.2498   43.7037  143.6418 C   0  0  1  0  0  0  0  0  0  0  0  0
  160.6930   45.0550  143.7601 O   0  0  0  0  0  0  0  0  0  0  0  0
  160.4774   43.1625  142.2428 C   0  0  1  0  0  0  0  0  0  0  0  0
  161.6605   43.7230  141.6667 O   0  0  0  0  0  0  0  0  0  0  0  0
  160.7181   41.6780  142.4205 C   0  0  2  0  0  0  0  0  0  0  0  0
  159.4334   40.9476  142.2851 N   0  0  0  0  0  0  0  0  0  0  0  0
  158.9186   40.0886  143.1871 C   0  0  0  0  0  0  0  0  0  0  0  0
  157.7181   39.5877  142.7832 N   0  0  0  0  0  0  0  0  0  0  0  0
  157.4402   40.1394  141.5913 C   0  0  0  0  0  0  0  0  0  0  0  0
  156.3413   40.0433  140.5969 C   0  0  0  0  0  0  0  0  0  0  0  0
  155.3364   39.3224  140.7775 O   0  0  0  0  0  0  0  0  0  0  0  0
  156.4453   40.7826  139.4914 N   0  0  0  0  0  0  0  0  0  0  0  0
  157.5006   41.5768  139.2537 C   0  0  0  0  0  0  0  0  0  0  0  0
  157.5085   42.2656  138.1027 N   0  0  0  0  0  0  0  0  0  0  0  0
  158.5440   41.7112  140.1055 N   0  0  0  0  0  0  0  0  0  0  0  0
  158.5733   41.0302  141.2703 C   0  0  0  0  0  0  0  0  0  0  0  0
  1  3  2  6  0  0  0
  1 32  1  0  0  0  0
  1  2  1  0  0  0  0
  1  4  1  0  0  0  0
  4  5  1  0  0  0  0
  6  5  1  6  0  0  0
  7  6  1  0  0  0  0
  8  6  1  0  0  0  0
  8 10  1  0  0  0  0
  8  9  1  1  0  0  0
 10 11  1  1  0  0  0
 12 13  1  6  0  0  0
 12  7  1  0  0  0  0
 12 10  1  0  0  0  0
 14 13  1  0  0  0  0
 15 16  1  0  0  0  0
 15 14  2  0  0  0  0
 16 23  2  0  0  0  0
 17 16  1  0  0  0  0
 17 19  1  0  0  0  0
 18 17  2  0  0  0  0
 19 20  2  0  0  0  0
 20 22  1  0  0  0  0
 20 21  1  0  0  0  0
 23 13  1  0  0  0  0
 23 22  1  0  0  0  0
 24 25  2  6  0  0  0
 24  9  1  0  0  0  0
 24 26  1  0  0  0  0
 27 28  1  0  0  0  0
 27 24  1  0  0  0  0
 29 30  1  6  0  0  0
 29 28  1  0  0  0  0
 31 32  1  6  0  0  0
 31 29  1  0  0  0  0
 33 34  1  1  0  0  0
 33 35  1  0  0  0  0
 33 31  1  0  0  0  0
 35 36  1  1  0  0  0
 35 30  1  0  0  0  0
 36 37  1  0  0  0  0
 38 37  2  0  0  0  0
 39 38  1  0  0  0  0
 40 41  2  0  0  0  0
 40 39  1  0  0  0  0
 42 40  1  0  0  0  0
 43 42  2  0  0  0  0
 43 45  1  0  0  0  0
 44 43  1  0  0  0  0
 45 46  1  0  0  0  0
 46 39  2  0  0  0  0
 46 36  1  0  0  0  0
M  END
>  <CHROM.1>
24.07567306,-11.07799340,157.16107964,43.59095630,143.93917033,-0.37063613
-0.16145760,1.01422020

>  <Name>
lig.pdb

>  <RI>
0

>  <Rbt.Current_Directory>
/home/itssahil/PROJECTS/Mol_Feturizer/New_Systems/rnas/4yb0

>  <Rbt.Executable>
rbdock ($Id: //depot/dev/client3/rdock/2013.1/src/exe/rbdock.cxx#4 $)

>  <Rbt.Library>
libRbt.so (2013.1, Build901 2013/11/27)

>  <Rbt.Parameter_File>
/export/apps/rDock/src/rDock_2013.1_src/data/scripts/dock_solv.prm

>  <Rbt.Receptor>
prm/pocket_docking_2.prm

>  <SCORE>
-53.6695

>  <SCORE.INTER>
-53.5255

>  <SCORE.INTER.CONST>
1

>  <SCORE.INTER.POLAR>
0

>  <SCORE.INTER.ROT>
2

>  <SCORE.INTER.SOLV>
31.2726

>  <SCORE.INTER.VDW>
-51.0412

>  <SCORE.INTER.norm>
-1.1636

>  <SCORE.INTRA>
-0.144021

>  <SCORE.INTRA.DIHEDRAL>
-0.0196278

>  <SCORE.INTRA.DIHEDRAL.0>
4.74153

>  <SCORE.INTRA.POLAR>
0

>  <SCORE.INTRA.POLAR.0>
0

>  <SCORE.INTRA.REPUL>
0

>  <SCORE.INTRA.REPUL.0>
0

>  <SCORE.INTRA.SOLV>
0.00602064

>  <SCORE.INTRA.SOLV.lig_0>
-60.4375

>  <SCORE.INTRA.VDW>
-0.137218

>  <SCORE.INTRA.VDW.0>
-1.83689

>  <SCORE.INTRA.norm>
-0.00313089

>  <SCORE.RESTR>
0

>  <SCORE.RESTR.CAVITY>
0

>  <SCORE.RESTR.norm>
0

>  <SCORE.SYSTEM>
0

>  <SCORE.SYSTEM.CONST>
0

>  <SCORE.SYSTEM.DIHEDRAL>
0

>  <SCORE.SYSTEM.SOLV>
0

>  <SCORE.SYSTEM.norm>
0

>  <SCORE.heavy>
46

>  <SCORE.norm>
-1.16673

>  <RMSD>
0.453

$$$$
lig.pdb
 OpenBabel11021811523D
libRbt.so/2013.1/901 2013/11/27
 46 52  0  0  0  0  0  0  0  0999 V2000
  159.6652   46.2365  143.4448 P   0  0  2  0  0  0  0  0  0  0  0  0
  160.3101   47.5721  143.7446 O   0  0  0  0  0  0  0  0  0  0  0  0
  159.1751   46.0217  142.0360 O   0  0  0  0  0  0  0  0  0  0  0  0
  158.4500   45.9347  144.4535 O   0  0  0  0  0  0  0  0  0  0  0  0
  158.2097   46.7488  145.5939 C   0  0  0  0  0  0  0  0  0  0  0  0
  157.2826   46.0298  146.5599 C   0  0  1  0  0  0  0  0  0  0  0  0
  155.9865   46.5965  146.4293 O   0  0  0  0  0  0  0  0  0  0  0  0
  157.1187   44.5334  146.3263 C   0  0  1  0  0  0  0  0  0  0  0  0
  157.8737   43.8137  147.2900 O   0  0  0  0  0  0  0  0  0  0  0  0
  155.6517   44.2921  146.6034 C   0  0  1  0  0  0  0  0  0  0  0  0
  155.4690   43.9845  147.9869 O   0  0  0  0  0  0  0  0  0  0  0  0
  154.9713   45.6072  146.3564 C   0  0  2  0  0  0  0  0  0  0  0  0
  154.4026   45.6115  144.9877 N   0  0  0  0  0  0  0  0  0  0  0  0
  155.0163   46.0772  143.8859 C   0  0  0  0  0  0  0  0  0  0  0  0
  154.2146   45.9465  142.8017 N   0  0  0  0  0  0  0  0  0  0  0  0
  153.0592   45.3870  143.2031 C   0  0  0  0  0  0  0  0  0  0  0  0
  151.7888   44.9739  142.5616 C   0  0  0  0  0  0  0  0  0  0  0  0
  151.6186   45.1408  141.3299 O   0  0  0  0  0  0  0  0  0  0  0  0
  150.8414   44.4249  143.3410 N   0  0  0  0  0  0  0  0  0  0  0  0
  151.0284   44.2495  144.6628 C   0  0  0  0  0  0  0  0  0  0  0  0
  150.0422   43.6875  145.3969 N   0  0  0  0  0  0  0  0  0  0  0  0
  152.1615   44.6037  145.3105 N   0  0  0  0  0  0  0  0  0  0  0  0
  153.1931   45.1675  144.6466 C   0  0  0  0  0  0  0  0  0  0  0  0
  158.1594   42.2187  147.1892 P   0  0  2  0  0  0  0  0  0  0  0  0
  156.8600   41.4982  146.9234 O   0  0  0  0  0  0  0  0  0  0  0  0
  159.0133   41.8682  148.3934 O   0  0  0  0  0  0  0  0  0  0  0  0
  159.0551   42.1116  145.8492 O   0  0  0  0  0  0  0  0  0  0  0  0
  160.4488   42.4151  145.8938 C   0  0  0  0  0  0  0  0  0  0  0  0
  161.0444   42.7174  144.5152 C   0  0  1  0  0  0  0  0  0  0  0  0
  161.1605   41.5012  143.7735 O   0  0  0  0  0  0  0  0  0  0  0  0
  160.2305   43.6828  143.6563 C   0  0  1  0  0  0  0  0  0  0  0  0
  160.6808   45.0309  143.7829 O   0  0  0  0  0  0  0  0  0  0  0  0
  160.4648   43.1456  142.2568 C   0  0  1  0  0  0  0  0  0  0  0  0
  161.6552   43.7013  141.6912 O   0  0  0  0  0  0  0  0  0  0  0  0
  160.6954   41.6590  142.4304 C   0  0  2  0  0  0  0  0  0  0  0  0
  159.4074   40.9368  142.2832 N   0  0  0  0  0  0  0  0  0  0  0  0
  158.8980   40.0508  143.1618 C   0  0  0  0  0  0  0  0  0  0  0  0
  157.6925   39.5663  142.7528 N   0  0  0  0  0  0  0  0  0  0  0  0
  157.4059   40.1565  141.5816 C   0  0  0  0  0  0  0  0  0  0  0  0
  156.2980   40.0951  140.5944 C   0  0  0  0  0  0  0  0  0  0  0  0
  155.2926   39.3715  140.7609 O   0  0  0  0  0  0  0  0  0  0  0  0
  156.3945   40.8691  139.5121 N   0  0  0  0  0  0  0  0  0  0  0  0
  157.4500   41.6676  139.2906 C   0  0  0  0  0  0  0  0  0  0  0  0
  157.4499   42.3927  138.1621 N   0  0  0  0  0  0  0  0  0  0  0  0
  158.5012   41.7720  140.1370 N   0  0  0  0  0  0  0  0  0  0  0  0
  158.5388   41.0540  141.2792 C   0  0  0  0  0  0  0  0  0  0  0  0
  1  3  2  6  0  0  0
  1 32  1  0  0  0  0
  1  2  1  0  0  0  0
  1  4  1  0  0  0  0
  4  5  1  0  0  0  0
  6  5  1  6  0  0  0
  7  6  1  0  0  0  0
  8  6  1  0  0  0  0
  8 10  1  0  0  0  0
  8  9  1  1  0  0  0
 10 11  1  1  0  0  0
 12 13  1  6  0  0  0
 12  7  1  0  0  0  0
 12 10  1  0  0  0  0
 14 13  1  0  0  0  0
 15 16  1  0  0  0  0
 15 14  2  0  0  0  0
 16 23  2  0  0  0  0
 17 16  1  0  0  0  0
 17 19  1  0  0  0  0
 18 17  2  0  0  0  0
 19 20  2  0  0  0  0
 20 22  1  0  0  0  0
 20 21  1  0  0  0  0
 23 13  1  0  0  0  0
 23 22  1  0  0  0  0
 24 25  2  6  0  0  0
 24  9  1  0  0  0  0
 24 26  1  0  0  0  0
 27 28  1  0  0  0  0
 27 24  1  0  0  0  0
 29 30  1  6  0  0  0
 29 28  1  0  0  0  0
 31 32  1  6  0  0  0
 31 29  1  0  0  0  0
 33 34  1  1  0  0  0
 33 35  1  0  0  0  0
 33 31  1  0  0  0  0
 35 36  1  1  0  0  0
 35 30  1  0  0  0  0
 36 37  1  0  0  0  0
 38 37  2  0  0  0  0
 39 38  1  0  0  0  0
 40 41  2  0  0  0  0
 40 39  1  0  0  0  0
 42 40  1  0  0  0  0
 43 42  2  0  0  0  0
 43 45  1  0  0  0  0
 44 43  1  0  0  0  0
 45 46  1  0  0  0  0
 46 39  2  0  0  0  0
 46 36  1  0  0  0  0
M  END
>  <CHROM.1>
22.34771298,-12.93181973,157.13790917,43.58590130,143.93485311,-0.34715293
-0.16509560,1.02002354

>  <Name>
lig.pdb

>  <RI>
0

>  <Rbt.Current_Directory>
/home/itssahil/PROJECTS/Mol_Feturizer/New_Systems/rnas/4yb0

>  <Rbt.Executable>
rbdock ($Id: //depot/dev/client3/rdock/2013.1/src/exe/rbdock.cxx#4 $)

>  <Rbt.Library>
libRbt.so (2013.1, Build901 2013/11/27)

>  <Rbt.Parameter_File>
/export/apps/rDock/src/rDock_2013.1_src/data/scripts/dock_solv.prm

>  <Rbt.Receptor>
prm/pocket_docking_5.prm

>  <SCORE>
-53.5644

>  <SCORE.INTER>
-53.4605

>  <SCORE.INTER.CONST>
1

>  <SCORE.INTER.POLAR>
0

>  <SCORE.INTER.ROT>
2

>  <SCORE.INTER.SOLV>
31.2159

>  <SCORE.INTER.VDW>
-50.9789

>  <SCORE.INTER.norm>
-1.16218

>  <SCORE.INTRA>
-0.103962

>  <SCORE.INTRA.DIHEDRAL>
-0.0228901

>  <SCORE.INTRA.DIHEDRAL.0>
4.74153

>  <SCORE.INTRA.POLAR>
0

>  <SCORE.INTRA.POLAR.0>
0

>  <SCORE.INTRA.REPUL>
0

>  <SCORE.INTRA.REPUL.0>
0

>  <SCORE.INTRA.SOLV>
-0.00204914

>  <SCORE.INTRA.SOLV.lig_0>
-60.4375

>  <SCORE.INTRA.VDW>
-0.0914922

>  <SCORE.INTRA.VDW.0>
-1.83689

>  <SCORE.INTRA.norm>
-0.00226004

>  <SCORE.RESTR>
0

>  <SCORE.RESTR.CAVITY>
0

>  <SCORE.RESTR.norm>
0

>  <SCORE.SYSTEM>
0

>  <SCORE.SYSTEM.CONST>
0

>  <SCORE.SYSTEM.DIHEDRAL>
0

>  <SCORE.SYSTEM.SOLV>
0

>  <SCORE.SYSTEM.norm>
0

>  <SCORE.heavy>
46

>  <SCORE.norm>
-1.16444

>  <RMSD>
0.453

$$$$
lig.pdb
 OpenBabel11021811523D
libRbt.so/2013.1/901 2013/11/27
 46 52  0  0  0  0  0  0  0  0999 V2000
  159.6711   46.2438  143.4361 P   0  0  2  0  0  0  0  0  0  0  0  0
  160.3173   47.5800  143.7307 O   0  0  0  0  0  0  0  0  0  0  0  0
  159.1814   46.0238  142.0280 O   0  0  0  0  0  0  0  0  0  0  0  0
  158.4551   45.9475  144.4454 O   0  0  0  0  0  0  0  0  0  0  0  0
  158.2152   46.7665  145.5824 C   0  0  0  0  0  0  0  0  0  0  0  0
  157.2868   46.0524  146.5509 C   0  0  1  0  0  0  0  0  0  0  0  0
  155.9914   46.6199  146.4173 O   0  0  0  0  0  0  0  0  0  0  0  0
  157.1214   44.5552  146.3233 C   0  0  1  0  0  0  0  0  0  0  0  0
  157.8751   43.8387  147.2903 O   0  0  0  0  0  0  0  0  0  0  0  0
  155.6541   44.3167  146.6007 C   0  0  1  0  0  0  0  0  0  0  0  0
  155.4704   44.0149  147.9853 O   0  0  0  0  0  0  0  0  0  0  0  0
  154.9752   45.6315  146.3480 C   0  0  2  0  0  0  0  0  0  0  0  0
  154.4072   45.6309  144.9790 N   0  0  0  0  0  0  0  0  0  0  0  0
  155.0184   46.0994  143.8770 C   0  0  0  0  0  0  0  0  0  0  0  0
  154.2180   45.9625  142.7926 N   0  0  0  0  0  0  0  0  0  0  0  0
  153.0661   45.3960  143.1939 C   0  0  0  0  0  0  0  0  0  0  0  0
  151.7987   44.9741  142.5523 C   0  0  0  0  0  0  0  0  0  0  0  0
  151.6280   45.1387  141.3203 O   0  0  0  0  0  0  0  0  0  0  0  0
  150.8544   44.4198  143.3317 N   0  0  0  0  0  0  0  0  0  0  0  0
  151.0419   44.2468  144.6538 C   0  0  0  0  0  0  0  0  0  0  0  0
  150.0590   43.6791  145.3879 N   0  0  0  0  0  0  0  0  0  0  0  0
  152.1724   44.6089  145.3017 N   0  0  0  0  0  0  0  0  0  0  0  0
  153.2007   45.1787  144.6377 C   0  0  0  0  0  0  0  0  0  0  0  0
  158.1592   42.2429  147.1961 P   0  0  2  0  0  0  0  0  0  0  0  0
  156.8592   41.5227  146.9327 O   0  0  0  0  0  0  0  0  0  0  0  0
  159.0122   41.8965  148.4021 O   0  0  0  0  0  0  0  0  0  0  0  0
  159.0555   42.1294  145.8570 O   0  0  0  0  0  0  0  0  0  0  0  0
  160.4494   42.4316  145.9010 C   0  0  0  0  0  0  0  0  0  0  0  0
  161.0460   42.7276  144.5215 C   0  0  1  0  0  0  0  0  0  0  0  0
  161.1611   41.5083  143.7848 O   0  0  0  0  0  0  0  0  0  0  0  0
  160.2336   43.6904  143.6583 C   0  0  1  0  0  0  0  0  0  0  0  0
  160.6853   45.0385  143.7796 O   0  0  0  0  0  0  0  0  0  0  0  0
  160.4679   43.1473  142.2611 C   0  0  1  0  0  0  0  0  0  0  0  0
  161.6593   43.6994  141.6938 O   0  0  0  0  0  0  0  0  0  0  0  0
  160.6969   41.6611  142.4408 C   0  0  2  0  0  0  0  0  0  0  0  0
  159.4082   40.9397  142.2959 N   0  0  0  0  0  0  0  0  0  0  0  0
  158.8923   40.0660  143.1831 C   0  0  0  0  0  0  0  0  0  0  0  0
  157.6879   39.5788  142.7739 N   0  0  0  0  0  0  0  0  0  0  0  0
  157.4087   40.1546  141.5937 C   0  0  0  0  0  0  0  0  0  0  0  0
  156.3060   40.0829  140.6015 C   0  0  0  0  0  0  0  0  0  0  0  0
  155.2982   39.3636  140.7718 O   0  0  0  0  0  0  0  0  0  0  0  0
  156.4099   40.8429  139.5100 N   0  0  0  0  0  0  0  0  0  0  0  0
  157.4682   41.6364  139.2839 C   0  0  0  0  0  0  0  0  0  0  0  0
  157.4756   42.3471  138.1463 N   0  0  0  0  0  0  0  0  0  0  0  0
  158.5151   41.7493  140.1346 N   0  0  0  0  0  0  0  0  0  0  0  0
  158.5451   41.0459  141.2859 C   0  0  0  0  0  0  0  0  0  0  0  0
  1  3  2  6  0  0  0
  1 32  1  0  0  0  0
  1  2  1  0  0  0  0
  1  4  1  0  0  0  0
  4  5  1  0  0  0  0
  6  5  1  6  0  0  0
  7  6  1  0  0  0  0
  8  6  1  0  0  0  0
  8 10  1  0  0  0  0
  8  9  1  1  0  0  0
 10 11  1  1  0  0  0
 12 13  1  6  0  0  0
 12  7  1  0  0  0  0
 12 10  1  0  0  0  0
 14 13  1  0  0  0  0
 15 16  1  0  0  0  0
 15 14  2  0  0  0  0
 16 23  2  0  0  0  0
 17 16  1  0  0  0  0
 17 19  1  0  0  0  0
 18 17  2  0  0  0  0
 19 20  2  0  0  0  0
 20 22  1  0  0  0  0
 20 21  1  0  0  0  0
 23 13  1  0  0  0  0
 23 22  1  0  0  0  0
 24 25  2  6  0  0  0
 24  9  1  0  0  0  0
 24 26  1  0  0  0  0
 27 28  1  0  0  0  0
 27 24  1  0  0  0  0
 29 30  1  6  0  0  0
 29 28  1  0  0  0  0
 31 32  1  6  0  0  0
 31 29  1  0  0  0  0
 33 34  1  1  0  0  0
 33 35  1  0  0  0  0
 33 31  1  0  0  0  0
 35 36  1  1  0  0  0
 35 30  1  0  0  0  0
 36 37  1  0  0  0  0
 38 37  2  0  0  0  0
 39 38  1  0  0  0  0
 40 41  2  0  0  0  0
 40 39  1  0  0  0  0
 42 40  1  0  0  0  0
 43 42  2  0  0  0  0
 43 45  1  0  0  0  0
 44 43  1  0  0  0  0
 45 46  1  0  0  0  0
 46 39  2  0  0  0  0
 46 36  1  0  0  0  0
M  END
>  <CHROM.1>
21.88110717,-12.36132164,157.14316015,43.59336911,143.93384251,-0.35113273
-0.16415098,1.01439214

>  <Name>
lig.pdb

>  <RI>
0

>  <Rbt.Current_Directory>
/home/itssahil/PROJECTS/Mol_Feturizer/New_Systems/rnas/4yb0

>  <Rbt.Executable>
rbdock ($Id: //depot/dev/client3/rdock/2013.1/src/exe/rbdock.cxx#4 $)

>  <Rbt.Library>
libRbt.so (2013.1, Build901 2013/11/27)

>  <Rbt.Parameter_File>
/export/apps/rDock/src/rDock_2013.1_src/data/scripts/dock_solv.prm

>  <Rbt.Receptor>
prm/pocket_docking_7.prm

>  <SCORE>
-53.5557

>  <SCORE.INTER>
-53.4524

>  <SCORE.INTER.CONST>
1

>  <SCORE.INTER.POLAR>
0

>  <SCORE.INTER.ROT>
2

>  <SCORE.INTER.SOLV>
31.0877

>  <SCORE.INTER.VDW>
-50.9308

>  <SCORE.INTER.norm>
-1.16201

>  <SCORE.INTRA>
-0.103355

>  <SCORE.INTRA.DIHEDRAL>
-0.021074

>  <SCORE.INTRA.DIHEDRAL.0>
4.74153

>  <SCORE.INTRA.POLAR>
0

>  <SCORE.INTRA.POLAR.0>
0

>  <SCORE.INTRA.REPUL>
0

>  <SCORE.INTRA.REPUL.0>
0

>  <SCORE.INTRA.SOLV>
-0.00123619

>  <SCORE.INTRA.SOLV.lig_0>
-60.4375

>  <SCORE.INTRA.VDW>
-0.0921996

>  <SCORE.INTRA.VDW.0>
-1.83689

>  <SCORE.INTRA.norm>
-0.00224684

>  <SCORE.RESTR>
0

>  <SCORE.RESTR.CAVITY>
0

>  <SCORE.RESTR.norm>
0

>  <SCORE.SYSTEM>
0

>  <SCORE.SYSTEM.CONST>
0

>  <SCORE.SYSTEM.DIHEDRAL>
0

>  <SCORE.SYSTEM.SOLV>
0

>  <SCORE.SYSTEM.norm>
0

>  <SCORE.heavy>
46

>  <SCORE.norm>
-1.16425

>  <RMSD>
0.453

$$$$
lig.pdb
 OpenBabel11021811523D
libRbt.so/2013.1/901 2013/11/27
 46 52  0  0  0  0  0  0  0  0999 V2000
  159.6592   46.2469  143.4634 P   0  0  2  0  0  0  0  0  0  0  0  0
  160.3000   47.5851  143.7603 O   0  0  0  0  0  0  0  0  0  0  0  0
  159.1668   46.0288  142.0558 O   0  0  0  0  0  0  0  0  0  0  0  0
  158.4473   45.9419  144.4749 O   0  0  0  0  0  0  0  0  0  0  0  0
  158.2065   46.7564  145.6150 C   0  0  0  0  0  0  0  0  0  0  0  0
  157.2841   46.0351  146.5838 C   0  0  1  0  0  0  0  0  0  0  0  0
  155.9857   46.5970  146.4553 O   0  0  0  0  0  0  0  0  0  0  0  0
  157.1250   44.5378  146.3522 C   0  0  1  0  0  0  0  0  0  0  0  0
  157.8846   43.8219  147.3150 O   0  0  0  0  0  0  0  0  0  0  0  0
  155.6595   44.2916  146.6326 C   0  0  1  0  0  0  0  0  0  0  0  0
  155.4809   43.9848  148.0168 O   0  0  0  0  0  0  0  0  0  0  0  0
  154.9739   45.6040  146.3857 C   0  0  2  0  0  0  0  0  0  0  0  0
  154.4023   45.6049  145.0182 N   0  0  0  0  0  0  0  0  0  0  0  0
  155.0195   46.0536  143.9114 C   0  0  0  0  0  0  0  0  0  0  0  0
  154.2137   45.9248  142.8301 N   0  0  0  0  0  0  0  0  0  0  0  0
  153.0520   45.3837  143.2383 C   0  0  0  0  0  0  0  0  0  0  0  0
  151.7749   44.9821  142.6029 C   0  0  0  0  0  0  0  0  0  0  0  0
  151.6041   45.1413  141.3703 O   0  0  0  0  0  0  0  0  0  0  0  0
  150.8221   44.4518  143.3887 N   0  0  0  0  0  0  0  0  0  0  0  0
  151.0098   44.2845  144.7115 C   0  0  0  0  0  0  0  0  0  0  0  0
  150.0180   43.7413  145.4521 N   0  0  0  0  0  0  0  0  0  0  0  0
  152.1488   44.6290  145.3539 N   0  0  0  0  0  0  0  0  0  0  0  0
  153.1862   45.1740  144.6832 C   0  0  0  0  0  0  0  0  0  0  0  0
  158.1758   42.2277  147.2153 P   0  0  2  0  0  0  0  0  0  0  0  0
  156.8784   41.5023  146.9530 O   0  0  0  0  0  0  0  0  0  0  0  0
  159.0335   41.8816  148.4179 O   0  0  0  0  0  0  0  0  0  0  0  0
  159.0690   42.1224  145.8734 O   0  0  0  0  0  0  0  0  0  0  0  0
  160.4617   42.4309  145.9147 C   0  0  0  0  0  0  0  0  0  0  0  0
  161.0532   42.7339  144.5344 C   0  0  1  0  0  0  0  0  0  0  0  0
  161.1721   41.5173  143.7938 O   0  0  0  0  0  0  0  0  0  0  0  0
  160.2341   43.6954  143.6763 C   0  0  1  0  0  0  0  0  0  0  0  0
  160.6799   45.0453  143.8005 O   0  0  0  0  0  0  0  0  0  0  0  0
  160.4673   43.1576  142.2769 C   0  0  1  0  0  0  0  0  0  0  0  0
  161.6545   43.7169  141.7081 O   0  0  0  0  0  0  0  0  0  0  0  0
  160.7035   41.6720  142.4515 C   0  0  2  0  0  0  0  0  0  0  0  0
  159.4178   40.9450  142.3079 N   0  0  0  0  0  0  0  0  0  0  0  0
  158.8940   40.0889  143.2074 C   0  0  0  0  0  0  0  0  0  0  0  0
  157.6950   39.5908  142.7955 N   0  0  0  0  0  0  0  0  0  0  0  0
  157.4275   40.1413  141.6007 C   0  0  0  0  0  0  0  0  0  0  0  0
  156.3357   40.0467  140.5984 C   0  0  0  0  0  0  0  0  0  0  0  0
  155.3275   39.3290  140.7728 O   0  0  0  0  0  0  0  0  0  0  0  0
  156.4500   40.7840  139.4925 N   0  0  0  0  0  0  0  0  0  0  0  0
  157.5092   41.5748  139.2613 C   0  0  0  0  0  0  0  0  0  0  0  0
  157.5275   42.2617  138.1093 N   0  0  0  0  0  0  0  0  0  0  0  0
  158.5466   41.7076  140.1206 N   0  0  0  0  0  0  0  0  0  0  0  0
  158.5655   41.0284  141.2867 C   0  0  0  0  0  0  0  0  0  0  0  0
  1  3  2  6  0  0  0
  1 32  1  0  0  0  0
  1  2  1  0  0  0  0
  1  4  1  0  0  0  0
  4  5  1  0  0  0  0
  6  5  1  6  0  0  0
  7  6  1  0  0  0  0
  8  6  1  0  0  0  0
  8 10  1  0  0  0  0
  8  9  1  1  0  0  0
 10 11  1  1  0  0  0
 12 13  1  6  0  0  0
 12  7  1  0  0  0  0
 12 10  1  0  0  0  0
 14 13  1  0  0  0  0
 15 16  1  0  0  0  0
 15 14  2  0  0  0  0
 16 23  2  0  0  0  0
 17 16  1  0  0  0  0
 17 19  1  0  0  0  0
 18 17  2  0  0  0  0
 19 20  2  0  0  0  0
 20 22  1  0  0  0  0
 20 21  1  0  0  0  0
 23 13  1  0  0  0  0
 23 22  1  0  0  0  0
 24 25  2  6  0  0  0
 24  9  1  0  0  0  0
 24 26  1  0  0  0  0
 27 28  1  0  0  0  0
 27 24  1  0  0  0  0
 29 30  1  6  0  0  0
 29 28  1  0  0  0  0
 31 32  1  6  0  0  0
 31 29  1  0  0  0  0
 33 34  1  1  0  0  0
 33 35  1  0  0  0  0
 33 31  1  0  0  0  0
 35 36  1  1  0  0  0
 35 30  1  0  0  0  0
 36 37  1  0  0  0  0
 38 37  2  0  0  0  0
 39 38  1  0  0  0  0
 40 41  2  0  0  0  0
 40 39  1  0  0  0  0
 42 40  1  0  0  0  0
 43 42  2  0  0  0  0
 43 45  1  0  0  0  0
 44 43  1  0  0  0  0
 45 46  1  0  0  0  0
 46 39  2  0  0  0  0
 46 36  1  0  0  0  0
M  END
>  <CHROM.1>
23.38016955,-10.78714349,157.14582839,43.58442006,143.95699363,-0.36862698
-0.16318557,1.01615243

>  <Name>
lig.pdb

>  <RI>
0

>  <Rbt.Current_Directory>
/home/itssahil/PROJECTS/Mol_Feturizer/New_Systems/rnas/4yb0

>  <Rbt.Executable>
rbdock ($Id: //depot/dev/client3/rdock/2013.1/src/exe/rbdock.cxx#4 $)

>  <Rbt.Library>
libRbt.so (2013.1, Build901 2013/11/27)

>  <Rbt.Parameter_File>
/export/apps/rDock/src/rDock_2013.1_src/data/scripts/dock_solv.prm

>  <Rbt.Receptor>
prm/pocket_docking_8.prm

>  <SCORE>
-53.6639

>  <SCORE.INTER>
-53.524

>  <SCORE.INTER.CONST>
1

>  <SCORE.INTER.POLAR>
0

>  <SCORE.INTER.ROT>
2

>  <SCORE.INTER.SOLV>
31.2017

>  <SCORE.INTER.VDW>
-51.0166

>  <SCORE.INTER.norm>
-1.16356

>  <SCORE.INTRA>
-0.139882

>  <SCORE.INTRA.DIHEDRAL>
-0.0183643

>  <SCORE.INTRA.DIHEDRAL.0>
4.74153

>  <SCORE.INTRA.POLAR>
0

>  <SCORE.INTRA.POLAR.0>
0

>  <SCORE.INTRA.REPUL>
0

>  <SCORE.INTRA.REPUL.0>
0

>  <SCORE.INTRA.SOLV>
0.00653208

>  <SCORE.INTRA.SOLV.lig_0>
-60.4375

>  <SCORE.INTRA.VDW>
-0.133966

>  <SCORE.INTRA.VDW.0>
-1.83689

>  <SCORE.INTRA.norm>
-0.00304091

>  <SCORE.RESTR>
0

>  <SCORE.RESTR.CAVITY>
0

>  <SCORE.RESTR.norm>
0

>  <SCORE.SYSTEM>
0

>  <SCORE.SYSTEM.CONST>
0

>  <SCORE.SYSTEM.DIHEDRAL>
0

>  <SCORE.SYSTEM.SOLV>
0

>  <SCORE.SYSTEM.norm>
0

>  <SCORE.heavy>
46

>  <SCORE.norm>
-1.16661

>  <RMSD>
0.453

$$$$
lig.pdb
 OpenBabel11021811523D
libRbt.so/2013.1/901 2013/11/27
 46 52  0  0  0  0  0  0  0  0999 V2000
  159.6735   46.2253  143.4250 P   0  0  2  0  0  0  0  0  0  0  0  0
  160.3194   47.5626  143.7152 O   0  0  0  0  0  0  0  0  0  0  0  0
  159.1800   46.0022  142.0187 O   0  0  0  0  0  0  0  0  0  0  0  0
  158.4607   45.9298  144.4383 O   0  0  0  0  0  0  0  0  0  0  0  0
  158.2233   46.7508  145.5745 C   0  0  0  0  0  0  0  0  0  0  0  0
  157.2984   46.0378  146.5470 C   0  0  1  0  0  0  0  0  0  0  0  0
  156.0021   46.6038  146.4161 O   0  0  0  0  0  0  0  0  0  0  0  0
  157.1337   44.5400  146.3228 C   0  0  1  0  0  0  0  0  0  0  0  0
  157.8908   43.8259  147.2889 O   0  0  0  0  0  0  0  0  0  0  0  0
  155.6673   44.3006  146.6048 C   0  0  1  0  0  0  0  0  0  0  0  0
  155.4879   44.0013  147.9905 O   0  0  0  0  0  0  0  0  0  0  0  0
  154.9865   45.6143  146.3515 C   0  0  2  0  0  0  0  0  0  0  0  0
  154.4146   45.6106  144.9842 N   0  0  0  0  0  0  0  0  0  0  0  0
  155.0224   46.0771  143.8795 C   0  0  0  0  0  0  0  0  0  0  0  0
  154.2190   45.9375  142.7977 N   0  0  0  0  0  0  0  0  0  0  0  0
  153.0685   45.3714  143.2035 C   0  0  0  0  0  0  0  0  0  0  0  0
  151.7994   44.9476  142.5664 C   0  0  0  0  0  0  0  0  0  0  0  0
  151.6251   45.1095  141.3346 O   0  0  0  0  0  0  0  0  0  0  0  0
  150.8576   44.3945  143.3498 N   0  0  0  0  0  0  0  0  0  0  0  0
  151.0491   44.2243  144.6716 C   0  0  0  0  0  0  0  0  0  0  0  0
  150.0685   43.6578  145.4098 N   0  0  0  0  0  0  0  0  0  0  0  0
  152.1812   44.5883  145.3155 N   0  0  0  0  0  0  0  0  0  0  0  0
  153.2073   45.1572  144.6474 C   0  0  0  0  0  0  0  0  0  0  0  0
  158.1761   42.2303  147.1970 P   0  0  2  0  0  0  0  0  0  0  0  0
  156.8760   41.5084  146.9386 O   0  0  0  0  0  0  0  0  0  0  0  0
  159.0328   41.8869  148.4012 O   0  0  0  0  0  0  0  0  0  0  0  0
  159.0686   42.1150  145.8555 O   0  0  0  0  0  0  0  0  0  0  0  0
  160.4624   42.4185  145.8949 C   0  0  0  0  0  0  0  0  0  0  0  0
  161.0547   42.7125  144.5131 C   0  0  1  0  0  0  0  0  0  0  0  0
  161.1688   41.4918  143.7784 O   0  0  0  0  0  0  0  0  0  0  0  0
  160.2389   43.6729  143.6504 C   0  0  1  0  0  0  0  0  0  0  0  0
  160.6898   45.0216  143.7678 O   0  0  0  0  0  0  0  0  0  0  0  0
  160.4698   43.1273  142.2535 C   0  0  1  0  0  0  0  0  0  0  0  0
  161.6589   43.6794  141.6818 O   0  0  0  0  0  0  0  0  0  0  0  0
  160.7006   41.6417  142.4355 C   0  0  2  0  0  0  0  0  0  0  0  0
  159.4121   40.9188  142.2957 N   0  0  0  0  0  0  0  0  0  0  0  0
  158.8897   40.0621  143.1955 C   0  0  0  0  0  0  0  0  0  0  0  0
  157.6875   39.5685  142.7876 N   0  0  0  0  0  0  0  0  0  0  0  0
  157.4164   40.1226  141.5953 C   0  0  0  0  0  0  0  0  0  0  0  0
  156.3200   40.0336  140.5975 C   0  0  0  0  0  0  0  0  0  0  0  0
  155.3104   39.3183  140.7746 O   0  0  0  0  0  0  0  0  0  0  0  0
  156.4316   40.7731  139.4928 N   0  0  0  0  0  0  0  0  0  0  0  0
  157.4922   41.5614  139.2590 C   0  0  0  0  0  0  0  0  0  0  0  0
  157.5075   42.2509  138.1085 N   0  0  0  0  0  0  0  0  0  0  0  0
  158.5337   41.6891  140.1140 N   0  0  0  0  0  0  0  0  0  0  0  0
  158.5556   41.0071  141.2784 C   0  0  0  0  0  0  0  0  0  0  0  0
  1  3  2  6  0  0  0
  1 32  1  0  0  0  0
  1  2  1  0  0  0  0
  1  4  1  0  0  0  0
  4  5  1  0  0  0  0
  6  5  1  6  0  0  0
  7  6  1  0  0  0  0
  8  6  1  0  0  0  0
  8 10  1  0  0  0  0
  8  9  1  1  0  0  0
 10 11  1  1  0  0  0
 12 13  1  6  0  0  0
 12  7  1  0  0  0  0
 12 10  1  0  0  0  0
 14 13  1  0  0  0  0
 15 16  1  0  0  0  0
 15 14  2  0  0  0  0
 16 23  2  0  0  0  0
 17 16  1  0  0  0  0
 17 19  1  0  0  0  0
 18 17  2  0  0  0  0
 19 20  2  0  0  0  0
 20 22  1  0  0  0  0
 20 21  1  0  0  0  0
 23 13  1  0  0  0  0
 23 22  1  0  0  0  0
 24 25  2  6  0  0  0
 24  9  1  0  0  0  0
 24 26  1  0  0  0  0
 27 28  1  0  0  0  0
 27 24  1  0  0  0  0
 29 30  1  6  0  0  0
 29 28  1  0  0  0  0
 31 32  1  6  0  0  0
 31 29  1  0  0  0  0
 33 34  1  1  0  0  0
 33 35  1  0  0  0  0
 33 31  1  0  0  0  0
 35 36  1  1  0  0  0
 35 30  1  0  0  0  0
 36 37  1  0  0  0  0
 38 37  2  0  0  0  0
 39 38  1  0  0  0  0
 40 41  2  0  0  0  0
 40 39  1  0  0  0  0
 42 40  1  0  0  0  0
 43 42  2  0  0  0  0
 43 45  1  0  0  0  0
 44 43  1  0  0  0  0
 45 46  1  0  0  0  0
 46 39  2  0  0  0  0
 46 36  1  0  0  0  0
M  END
>  <CHROM.1>
21.91043398,-11.26778237,157.15212526,43.56929081,143.93228646,-0.36300019
-0.16115187,1.01016678

>  <Name>
lig.pdb

>  <RI>
0

>  <Rbt.Current_Directory>
/home/itssahil/PROJECTS/Mol_Feturizer/New_Systems/rnas/4yb0

>  <Rbt.Executable>
rbdock ($Id: //depot/dev/client3/rdock/2013.1/src/exe/rbdock.cxx#4 $)

>  <Rbt.Library>
libRbt.so (2013.1, Build901 2013/11/27)

>  <Rbt.Parameter_File>
/export/apps/rDock/src/rDock_2013.1_src/data/scripts/dock_solv.prm

>  <Rbt.Receptor>
prm/pocket_docking_8.prm

>  <SCORE>
-53.6691

>  <SCORE.INTER>
-53.5608

>  <SCORE.INTER.CONST>
1

>  <SCORE.INTER.POLAR>
0

>  <SCORE.INTER.ROT>
2

>  <SCORE.INTER.SOLV>
31.1351

>  <SCORE.INTER.VDW>
-51.0189

>  <SCORE.INTER.norm>
-1.16436

>  <SCORE.INTRA>
-0.108323

>  <SCORE.INTRA.DIHEDRAL>
-0.0183504

>  <SCORE.INTRA.DIHEDRAL.0>
4.74153

>  <SCORE.INTRA.POLAR>
0

>  <SCORE.INTRA.POLAR.0>
0

>  <SCORE.INTRA.REPUL>
0

>  <SCORE.INTRA.REPUL.0>
0

>  <SCORE.INTRA.SOLV>
0.00266487

>  <SCORE.INTRA.SOLV.lig_0>
-60.4375

>  <SCORE.INTRA.VDW>
-0.10048

>  <SCORE.INTRA.VDW.0>
-1.83689

>  <SCORE.INTRA.norm>
-0.00235485

>  <SCORE.RESTR>
0

>  <SCORE.RESTR.CAVITY>
0

>  <SCORE.RESTR.norm>
0

>  <SCORE.SYSTEM>
0

>  <SCORE.SYSTEM.CONST>
0

>  <SCORE.SYSTEM.DIHEDRAL>
0

>  <SCORE.SYSTEM.SOLV>
0

>  <SCORE.SYSTEM.norm>
0

>  <SCORE.heavy>
46

>  <SCORE.norm>
-1.16672

>  <RMSD>
0.453

$$$$
lig.pdb
 OpenBabel11021811523D
libRbt.so/2013.1/901 2013/11/27
 46 52  0  0  0  0  0  0  0  0999 V2000
  158.6208   42.1369  147.5198 P   0  0  2  0  0  0  0  0  0  0  0  0
  159.5257   41.4301  148.5053 O   0  0  0  0  0  0  0  0  0  0  0  0
  157.2286   41.5826  147.3603 O   0  0  0  0  0  0  0  0  0  0  0  0
  159.2983   42.2262  146.0644 O   0  0  0  0  0  0  0  0  0  0  0  0
  160.6587   41.8713  145.8537 C   0  0  0  0  0  0  0  0  0  0  0  0
  161.1363   42.4134  144.5166 C   0  0  1  0  0  0  0  0  0  0  0  0
  161.1705   41.3353  143.5922 O   0  0  0  0  0  0  0  0  0  0  0  0
  160.2564   43.4861  143.8875 C   0  0  1  0  0  0  0  0  0  0  0  0
  160.8592   44.7603  144.0597 O   0  0  0  0  0  0  0  0  0  0  0  0
  160.2868   43.1473  142.4140 C   0  0  1  0  0  0  0  0  0  0  0  0
  161.3754   43.8287  141.7875 O   0  0  0  0  0  0  0  0  0  0  0  0
  160.5929   41.6795  142.3422 C   0  0  2  0  0  0  0  0  0  0  0  0
  159.3270   40.9256  142.1813 N   0  0  0  0  0  0  0  0  0  0  0  0
  158.8485   40.0061  143.0375 C   0  0  0  0  0  0  0  0  0  0  0  0
  157.6775   39.4966  142.5854 N   0  0  0  0  0  0  0  0  0  0  0  0
  157.3879   40.0930  141.4153 C   0  0  0  0  0  0  0  0  0  0  0  0
  156.2973   40.0173  140.4148 C   0  0  0  0  0  0  0  0  0  0  0  0
  155.3385   39.2259  140.5829 O   0  0  0  0  0  0  0  0  0  0  0  0
  156.3777   40.8159  139.3367 N   0  0  0  0  0  0  0  0  0  0  0  0
  157.4097   41.6625  139.1602 C   0  0  0  0  0  0  0  0  0  0  0  0
  157.4358   42.4458  138.0588 N   0  0  0  0  0  0  0  0  0  0  0  0
  158.4362   41.7812  140.0325 N   0  0  0  0  0  0  0  0  0  0  0  0
  158.4807   41.0360  141.1575 C   0  0  0  0  0  0  0  0  0  0  0  0
  160.0888   46.1586  143.7646 P   0  0  2  0  0  0  0  0  0  0  0  0
  159.4353   46.0873  142.4059 O   0  0  0  0  0  0  0  0  0  0  0  0
  161.0768   47.2607  144.0979 O   0  0  0  0  0  0  0  0  0  0  0  0
  158.9106   46.1445  144.8696 O   0  0  0  0  0  0  0  0  0  0  0  0
  159.1898   46.5183  146.2182 C   0  0  0  0  0  0  0  0  0  0  0  0
  158.1345   46.0229  147.2120 C   0  0  1  0  0  0  0  0  0  0  0  0
  156.9445   46.8006  147.0645 O   0  0  0  0  0  0  0  0  0  0  0  0
  157.7291   44.5596  147.0493 C   0  0  1  0  0  0  0  0  0  0  0  0
  158.4698   43.6942  147.9088 O   0  0  0  0  0  0  0  0  0  0  0  0
  156.2583   44.5890  147.4206 C   0  0  1  0  0  0  0  0  0  0  0  0
  156.0871   44.4430  148.8331 O   0  0  0  0  0  0  0  0  0  0  0  0
  155.7769   45.9751  147.0456 C   0  0  2  0  0  0  0  0  0  0  0  0
  155.2296   45.9537  145.6664 N   0  0  0  0  0  0  0  0  0  0  0  0
  155.8572   46.4101  144.5644 C   0  0  0  0  0  0  0  0  0  0  0  0
  155.1023   46.2403  143.4435 N   0  0  0  0  0  0  0  0  0  0  0  0
  153.9569   45.6522  143.8234 C   0  0  0  0  0  0  0  0  0  0  0  0
  152.7116   45.1996  143.1525 C   0  0  0  0  0  0  0  0  0  0  0  0
  152.5398   45.3049  141.9190 O   0  0  0  0  0  0  0  0  0  0  0  0
  151.7695   44.6421  143.9149 N   0  0  0  0  0  0  0  0  0  0  0  0
  151.9085   44.5007  145.2421 C   0  0  0  0  0  0  0  0  0  0  0  0
  150.8920   43.9390  145.9132 N   0  0  0  0  0  0  0  0  0  0  0  0
  153.0077   44.8955  145.9264 N   0  0  0  0  0  0  0  0  0  0  0  0
  154.0478   45.4692  145.2859 C   0  0  0  0  0  0  0  0  0  0  0  0
  1  3  2  6  0  0  0
  1 32  1  0  0  0  0
  1  2  1  0  0  0  0
  1  4  1  0  0  0  0
  4  5  1  0  0  0  0
  6  5  1  1  0  0  0
  7  6  1  0  0  0  0
  8  6  1  0  0  0  0
  8 10  1  0  0  0  0
  8  9  1  6  0  0  0
 10 11  1  6  0  0  0
 12 13  1  1  0  0  0
 12  7  1  0  0  0  0
 12 10  1  0  0  0  0
 14 13  1  0  0  0  0
 15 16  1  0  0  0  0
 15 14  2  0  0  0  0
 16 23  2  0  0  0  0
 17 16  1  0  0  0  0
 17 19  1  0  0  0  0
 18 17  2  0  0  0  0
 19 20  2  0  0  0  0
 20 22  1  0  0  0  0
 20 21  1  0  0  0  0
 23 13  1  0  0  0  0
 23 22  1  0  0  0  0
 24 25  2  6  0  0  0
 24  9  1  0  0  0  0
 24 26  1  0  0  0  0
 27 28  1  0  0  0  0
 27 24  1  0  0  0  0
 29 30  1  6  0  0  0
 29 28  1  0  0  0  0
 31 32  1  1  0  0  0
 31 29  1  0  0  0  0
 33 34  1  1  0  0  0
 33 35  1  0  0  0  0
 33 31  1  0  0  0  0
 35 36  1  6  0  0  0
 35 30  1  0  0  0  0
 36 37  1  0  0  0  0
 38 37  2  0  0  0  0
 39 38  1  0  0  0  0
 40 41  2  0  0  0  0
 40 39  1  0  0  0  0
 42 40  1  0  0  0  0
 43 42  2  0  0  0  0
 43 45  1  0  0  0  0
 44 43  1  0  0  0  0
 45 46  1  0  0  0  0
 46 39  2  0  0  0  0
 46 36  1  0  0  0  0
M  END
>  <CHROM.1>
-3.85061497,11.92192805,157.54895121,43.61437406,144.23757007,-2.19359266
0.19036981,-2.11510302

>  <Name>
lig.pdb

>  <RI>
0

>  <Rbt.Current_Directory>
/home/itssahil/PROJECTS/Mol_Feturizer/New_Systems/rnas/4yb0

>  <Rbt.Executable>
rbdock ($Id: //depot/dev/client3/rdock/2013.1/src/exe/rbdock.cxx#4 $)

>  <Rbt.Library>
libRbt.so (2013.1, Build901 2013/11/27)

>  <Rbt.Parameter_File>
/export/apps/rDock/src/rDock_2013.1_src/data/scripts/dock_solv.prm

>  <Rbt.Receptor>
prm/pocket_docking_5.prm

>  <SCORE>
-50.5095

>  <SCORE.INTER>
-50.5669

>  <SCORE.INTER.CONST>
1

>  <SCORE.INTER.POLAR>
0

>  <SCORE.INTER.ROT>
2

>  <SCORE.INTER.SOLV>
29.048

>  <SCORE.INTER.VDW>
-48.3273

>  <SCORE.INTER.norm>
-1.09928

>  <SCORE.INTRA>
0.0573899

>  <SCORE.INTRA.DIHEDRAL>
0.100633

>  <SCORE.INTRA.DIHEDRAL.0>
4.74153

>  <SCORE.INTRA.POLAR>
0

>  <SCORE.INTRA.POLAR.0>
0

>  <SCORE.INTRA.REPUL>
0

>  <SCORE.INTRA.REPUL.0>
0

>  <SCORE.INTRA.SOLV>
0.123678

>  <SCORE.INTRA.SOLV.lig_0>
-60.4375

>  <SCORE.INTRA.VDW>
-0.0547659

>  <SCORE.INTRA.VDW.0>
-1.83689

>  <SCORE.INTRA.norm>
0.00124761

>  <SCORE.RESTR>
0

>  <SCORE.RESTR.CAVITY>
0

>  <SCORE.RESTR.norm>
0

>  <SCORE.SYSTEM>
0

>  <SCORE.SYSTEM.CONST>
0

>  <SCORE.SYSTEM.DIHEDRAL>
0

>  <SCORE.SYSTEM.SOLV>
0

>  <SCORE.SYSTEM.norm>
0

>  <SCORE.heavy>
46

>  <SCORE.norm>
-1.09803

>  <RMSD>
0.455

$$$$
lig.pdb
 OpenBabel11021811523D
libRbt.so/2013.1/901 2013/11/27
 46 52  0  0  0  0  0  0  0  0999 V2000
  159.6635   46.2754  143.4186 P   0  0  2  0  0  0  0  0  0  0  0  0
  160.3004   47.6161  143.7129 O   0  0  0  0  0  0  0  0  0  0  0  0
  159.1645   46.0561  142.0136 O   0  0  0  0  0  0  0  0  0  0  0  0
  158.4583   45.9648  144.4364 O   0  0  0  0  0  0  0  0  0  0  0  0
  158.2203   46.7776  145.5783 C   0  0  0  0  0  0  0  0  0  0  0  0
  157.3060   46.0520  146.5516 C   0  0  1  0  0  0  0  0  0  0  0  0
  156.0047   46.6086  146.4304 O   0  0  0  0  0  0  0  0  0  0  0  0
  157.1518   44.5542  146.3199 C   0  0  1  0  0  0  0  0  0  0  0  0
  157.9195   43.8409  147.2782 O   0  0  0  0  0  0  0  0  0  0  0  0
  155.6889   44.3019  146.6081 C   0  0  1  0  0  0  0  0  0  0  0  0
  155.5190   43.9935  147.9930 O   0  0  0  0  0  0  0  0  0  0  0  0
  154.9966   45.6116  146.3656 C   0  0  2  0  0  0  0  0  0  0  0  0
  154.4176   45.6109  145.0012 N   0  0  0  0  0  0  0  0  0  0  0  0
  155.0290   46.0582  143.8905 C   0  0  0  0  0  0  0  0  0  0  0  0
  154.2174   45.9282  142.8137 N   0  0  0  0  0  0  0  0  0  0  0  0
  153.0579   45.3878  143.2288 C   0  0  0  0  0  0  0  0  0  0  0  0
  151.7773   44.9858  142.6008 C   0  0  0  0  0  0  0  0  0  0  0  0
  151.5999   45.1435  141.3689 O   0  0  0  0  0  0  0  0  0  0  0  0
  150.8286   44.4567  143.3923 N   0  0  0  0  0  0  0  0  0  0  0  0
  151.0233   44.2909  144.7143 C   0  0  0  0  0  0  0  0  0  0  0  0
  150.0353   43.7489  145.4609 N   0  0  0  0  0  0  0  0  0  0  0  0
  152.1658   44.6360  145.3501 N   0  0  0  0  0  0  0  0  0  0  0  0
  153.1998   45.1799  144.6733 C   0  0  0  0  0  0  0  0  0  0  0  0
  158.2168   42.2480  147.1759 P   0  0  2  0  0  0  0  0  0  0  0  0
  156.9210   41.5174  146.9202 O   0  0  0  0  0  0  0  0  0  0  0  0
  159.0823   41.9047  148.3738 O   0  0  0  0  0  0  0  0  0  0  0  0
  159.1032   42.1471  145.8293 O   0  0  0  0  0  0  0  0  0  0  0  0
  160.4948   42.4613  145.8632 C   0  0  0  0  0  0  0  0  0  0  0  0
  161.0776   42.7675  144.4800 C   0  0  1  0  0  0  0  0  0  0  0  0
  161.1975   41.5518  143.7380 O   0  0  0  0  0  0  0  0  0  0  0  0
  160.2500   43.7262  143.6269 C   0  0  1  0  0  0  0  0  0  0  0  0
  160.6909   45.0778  143.7495 O   0  0  0  0  0  0  0  0  0  0  0  0
  160.4778   43.1902  142.2259 C   0  0  1  0  0  0  0  0  0  0  0  0
  161.6597   43.7547  141.6511 O   0  0  0  0  0  0  0  0  0  0  0  0
  160.7212   41.7054  142.3984 C   0  0  2  0  0  0  0  0  0  0  0  0
  159.4377   40.9733  142.2612 N   0  0  0  0  0  0  0  0  0  0  0  0
  158.9175   40.1220  143.1674 C   0  0  0  0  0  0  0  0  0  0  0  0
  157.7198   39.6170  142.7602 N   0  0  0  0  0  0  0  0  0  0  0  0
  157.4494   40.1581  141.5617 C   0  0  0  0  0  0  0  0  0  0  0  0
  156.3569   40.0527  140.5611 C   0  0  0  0  0  0  0  0  0  0  0  0
  155.3512   39.3329  140.7416 O   0  0  0  0  0  0  0  0  0  0  0  0
  156.4677   40.7824  139.4498 N   0  0  0  0  0  0  0  0  0  0  0  0
  157.5242   41.5750  139.2120 C   0  0  0  0  0  0  0  0  0  0  0  0
  157.5392   42.2536  138.0551 N   0  0  0  0  0  0  0  0  0  0  0  0
  158.5620   41.7173  140.0693 N   0  0  0  0  0  0  0  0  0  0  0  0
  158.5842   41.0466  141.2402 C   0  0  0  0  0  0  0  0  0  0  0  0
  1  3  2  6  0  0  0
  1 32  1  0  0  0  0
  1  2  1  0  0  0  0
  1  4  1  0  0  0  0
  4  5  1  0  0  0  0
  6  5  1  6  0  0  0
  7  6  1  0  0  0  0
  8  6  1  0  0  0  0
  8 10  1  0  0  0  0
  8  9  1  1  0  0  0
 10 11  1  1  0  0  0
 12 13  1  6  0  0  0
 12  7  1  0  0  0  0
 12 10  1  0  0  0  0
 14 13  1  0  0  0  0
 15 16  1  0  0  0  0
 15 14  2  0  0  0  0
 16 23  2  0  0  0  0
 17 16  1  0  0  0  0
 17 19  1  0  0  0  0
 18 17  2  0  0  0  0
 19 20  2  0  0  0  0
 20 22  1  0  0  0  0
 20 21  1  0  0  0  0
 23 13  1  0  0  0  0
 23 22  1  0  0  0  0
 24 25  2  6  0  0  0
 24  9  1  0  0  0  0
 24 26  1  0  0  0  0
 27 28  1  0  0  0  0
 27 24  1  0  0  0  0
 29 30  1  6  0  0  0
 29 28  1  0  0  0  0
 31 32  1  6  0  0  0
 31 29  1  0  0  0  0
 33 34  1  1  0  0  0
 33 35  1  0  0  0  0
 33 31  1  0  0  0  0
 35 36  1  1  0  0  0
 35 30  1  0  0  0  0
 36 37  1  0  0  0  0
 38 37  2  0  0  0  0
 39 38  1  0  0  0  0
 40 41  2  0  0  0  0
 40 39  1  0  0  0  0
 42 40  1  0  0  0  0
 43 42  2  0  0  0  0
 43 45  1  0  0  0  0
 44 43  1  0  0  0  0
 45 46  1  0  0  0  0
 46 39  2  0  0  0  0
 46 36  1  0  0  0  0
M  END
>  <CHROM.1>
23.64950675,-10.27182748,157.16454563,43.60161064,143.92300042,-0.37630846
-0.15748836,1.01561388

>  <Name>
lig.pdb

>  <RI>
0

>  <Rbt.Current_Directory>
/home/itssahil/PROJECTS/Mol_Feturizer/New_Systems/rnas/4yb0

>  <Rbt.Executable>
rbdock ($Id: //depot/dev/client3/rdock/2013.1/src/exe/rbdock.cxx#4 $)

>  <Rbt.Library>
libRbt.so (2013.1, Build901 2013/11/27)

>  <Rbt.Parameter_File>
/export/apps/rDock/src/rDock_2013.1_src/data/scripts/dock_solv.prm

>  <Rbt.Receptor>
prm/pocket_docking_2.prm

>  <SCORE>
-53.6653

>  <SCORE.INTER>
-53.5215

>  <SCORE.INTER.CONST>
1

>  <SCORE.INTER.POLAR>
0

>  <SCORE.INTER.ROT>
2

>  <SCORE.INTER.SOLV>
31.2517

>  <SCORE.INTER.VDW>
-51.0316

>  <SCORE.INTER.norm>
-1.16351

>  <SCORE.INTRA>
-0.143759

>  <SCORE.INTRA.DIHEDRAL>
-0.0172083

>  <SCORE.INTRA.DIHEDRAL.0>
4.74153

>  <SCORE.INTRA.POLAR>
0

>  <SCORE.INTRA.POLAR.0>
0

>  <SCORE.INTRA.REPUL>
0

>  <SCORE.INTRA.REPUL.0>
0

>  <SCORE.INTRA.SOLV>
0.00895147

>  <SCORE.INTRA.SOLV.lig_0>
-60.4375

>  <SCORE.INTRA.VDW>
-0.139631

>  <SCORE.INTRA.VDW.0>
-1.83689

>  <SCORE.INTRA.norm>
-0.0031252

>  <SCORE.RESTR>
0

>  <SCORE.RESTR.CAVITY>
0

>  <SCORE.RESTR.norm>
0

>  <SCORE.SYSTEM>
0

>  <SCORE.SYSTEM.CONST>
0

>  <SCORE.SYSTEM.DIHEDRAL>
0

>  <SCORE.SYSTEM.SOLV>
0

>  <SCORE.SYSTEM.norm>
0

>  <SCORE.heavy>
46

>  <SCORE.norm>
-1.16664

>  <RMSD>
0.456

$$$$
lig.pdb
 OpenBabel11021811523D
libRbt.so/2013.1/901 2013/11/27
 46 52  0  0  0  0  0  0  0  0999 V2000
  159.6581   46.2617  143.4677 P   0  0  2  0  0  0  0  0  0  0  0  0
  160.2998   47.5985  143.7692 O   0  0  0  0  0  0  0  0  0  0  0  0
  159.1809   46.0424  142.0551 O   0  0  0  0  0  0  0  0  0  0  0  0
  158.4339   45.9625  144.4661 O   0  0  0  0  0  0  0  0  0  0  0  0
  158.1830   46.7800  145.6018 C   0  0  0  0  0  0  0  0  0  0  0  0
  157.2474   46.0635  146.5616 C   0  0  1  0  0  0  0  0  0  0  0  0
  155.9523   46.6292  146.4174 O   0  0  0  0  0  0  0  0  0  0  0  0
  157.0861   44.5663  146.3311 C   0  0  1  0  0  0  0  0  0  0  0  0
  157.8326   43.8499  147.3037 O   0  0  0  0  0  0  0  0  0  0  0  0
  155.6168   44.3253  146.5955 C   0  0  1  0  0  0  0  0  0  0  0  0
  155.4216   44.0218  147.9782 O   0  0  0  0  0  0  0  0  0  0  0  0
  154.9382   45.6393  146.3383 C   0  0  2  0  0  0  0  0  0  0  0  0
  154.3820   45.6393  144.9645 N   0  0  0  0  0  0  0  0  0  0  0  0
  154.9856   46.1452  143.8749 C   0  0  0  0  0  0  0  0  0  0  0  0
  154.1996   45.9967  142.7816 N   0  0  0  0  0  0  0  0  0  0  0  0
  153.0649   45.3844  143.1644 C   0  0  0  0  0  0  0  0  0  0  0  0
  151.8185   44.9282  142.5054 C   0  0  0  0  0  0  0  0  0  0  0  0
  151.6524   45.1051  141.2745 O   0  0  0  0  0  0  0  0  0  0  0  0
  150.8877   44.3298  143.2683 N   0  0  0  0  0  0  0  0  0  0  0  0
  151.0701   44.1437  144.5893 C   0  0  0  0  0  0  0  0  0  0  0  0
  150.1015   43.5313  145.3063 N   0  0  0  0  0  0  0  0  0  0  0  0
  152.1817   44.5354  145.2524 N   0  0  0  0  0  0  0  0  0  0  0  0
  153.1949   45.1505  144.6060 C   0  0  0  0  0  0  0  0  0  0  0  0
  158.1198   42.2546  147.2104 P   0  0  2  0  0  0  0  0  0  0  0  0
  156.8232   41.5328  146.9350 O   0  0  0  0  0  0  0  0  0  0  0  0
  158.9629   41.9082  148.4233 O   0  0  0  0  0  0  0  0  0  0  0  0
  159.0278   42.1438  145.8789 O   0  0  0  0  0  0  0  0  0  0  0  0
  160.4208   42.4480  145.9352 C   0  0  0  0  0  0  0  0  0  0  0  0
  161.0288   42.7464  144.5612 C   0  0  1  0  0  0  0  0  0  0  0  0
  161.1521   41.5280  143.8243 O   0  0  0  0  0  0  0  0  0  0  0  0
  160.2225   43.7088  143.6920 C   0  0  1  0  0  0  0  0  0  0  0  0
  160.6711   45.0575  143.8186 O   0  0  0  0  0  0  0  0  0  0  0  0
  160.4697   43.1675  142.2963 C   0  0  1  0  0  0  0  0  0  0  0  0
  161.6650   43.7220  141.7399 O   0  0  0  0  0  0  0  0  0  0  0  0
  160.6992   41.6815  142.4765 C   0  0  2  0  0  0  0  0  0  0  0  0
  159.4129   40.9583  142.3198 N   0  0  0  0  0  0  0  0  0  0  0  0
  158.9043   40.0616  143.1880 C   0  0  0  0  0  0  0  0  0  0  0  0
  157.7003   39.5793  142.7723 N   0  0  0  0  0  0  0  0  0  0  0  0
  157.4138   40.1818  141.6073 C   0  0  0  0  0  0  0  0  0  0  0  0
  156.3071   40.1291  140.6182 C   0  0  0  0  0  0  0  0  0  0  0  0
  155.3031   39.4017  140.7755 O   0  0  0  0  0  0  0  0  0  0  0  0
  156.4033   40.9153  139.5447 N   0  0  0  0  0  0  0  0  0  0  0  0
  157.4574   41.7184  139.3333 C   0  0  0  0  0  0  0  0  0  0  0  0
  157.4571   42.4560  138.2129 N   0  0  0  0  0  0  0  0  0  0  0  0
  158.5074   41.8155  140.1821 N   0  0  0  0  0  0  0  0  0  0  0  0
  158.5452   41.0850  141.3162 C   0  0  0  0  0  0  0  0  0  0  0  0
  1  3  2  6  0  0  0
  1 32  1  0  0  0  0
  1  2  1  0  0  0  0
  1  4  1  0  0  0  0
  4  5  1  0  0  0  0
  6  5  1  6  0  0  0
  7  6  1  0  0  0  0
  8  6  1  0  0  0  0
  8 10  1  0  0  0  0
  8  9  1  1  0  0  0
 10 11  1  1  0  0  0
 12 13  1  6  0  0  0
 12  7  1  0  0  0  0
 12 10  1  0  0  0  0
 14 13  1  0  0  0  0
 15 16  1  0  0  0  0
 15 14  2  0  0  0  0
 16 23  2  0  0  0  0
 17 16  1  0  0  0  0
 17 19  1  0  0  0  0
 18 17  2  0  0  0  0
 19 20  2  0  0  0  0
 20 22  1  0  0  0  0
 20 21  1  0  0  0  0
 23 13  1  0  0  0  0
 23 22  1  0  0  0  0
 24 25  2  6  0  0  0
 24  9  1  0  0  0  0
 24 26  1  0  0  0  0
 27 28  1  0  0  0  0
 27 24  1  0  0  0  0
 29 30  1  6  0  0  0
 29 28  1  0  0  0  0
 31 32  1  6  0  0  0
 31 29  1  0  0  0  0
 33 34  1  1  0  0  0
 33 35  1  0  0  0  0
 33 31  1  0  0  0  0
 35 36  1  1  0  0  0
 35 30  1  0  0  0  0
 36 37  1  0  0  0  0
 38 37  2  0  0  0  0
 39 38  1  0  0  0  0
 40 41  2  0  0  0  0
 40 39  1  0  0  0  0
 42 40  1  0  0  0  0
 43 42  2  0  0  0  0
 43 45  1  0  0  0  0
 44 43  1  0  0  0  0
 45 46  1  0  0  0  0
 46 39  2  0  0  0  0
 46 36  1  0  0  0  0
M  END
>  <CHROM.1>
19.81010646,-13.86670366,157.13061370,43.60267340,143.94300664,-0.32423650
-0.16111590,1.01681385

>  <Name>
lig.pdb

>  <RI>
0

>  <Rbt.Current_Directory>
/home/itssahil/PROJECTS/Mol_Feturizer/New_Systems/rnas/4yb0

>  <Rbt.Executable>
rbdock ($Id: //depot/dev/client3/rdock/2013.1/src/exe/rbdock.cxx#4 $)

>  <Rbt.Library>
libRbt.so (2013.1, Build901 2013/11/27)

>  <Rbt.Parameter_File>
/export/apps/rDock/src/rDock_2013.1_src/data/scripts/dock_solv.prm

>  <Rbt.Receptor>
prm/pocket_docking_7.prm

>  <SCORE>
-53.5645

>  <SCORE.INTER>
-53.4688

>  <SCORE.INTER.CONST>
1

>  <SCORE.INTER.POLAR>
0

>  <SCORE.INTER.ROT>
2

>  <SCORE.INTER.SOLV>
30.7332

>  <SCORE.INTER.VDW>
-50.8236

>  <SCORE.INTER.norm>
-1.16237

>  <SCORE.INTRA>
-0.0956976

>  <SCORE.INTRA.DIHEDRAL>
-0.0224559

>  <SCORE.INTRA.DIHEDRAL.0>
4.74153

>  <SCORE.INTRA.POLAR>
0

>  <SCORE.INTRA.POLAR.0>
0

>  <SCORE.INTRA.REPUL>
0

>  <SCORE.INTRA.REPUL.0>
0

>  <SCORE.INTRA.SOLV>
-0.00742333

>  <SCORE.INTRA.SOLV.lig_0>
-60.4375

>  <SCORE.INTRA.VDW>
-0.080758

>  <SCORE.INTRA.VDW.0>
-1.83689

>  <SCORE.INTRA.norm>
-0.00208038

>  <SCORE.RESTR>
0

>  <SCORE.RESTR.CAVITY>
0

>  <SCORE.RESTR.norm>
0

>  <SCORE.SYSTEM>
0

>  <SCORE.SYSTEM.CONST>
0

>  <SCORE.SYSTEM.DIHEDRAL>
0

>  <SCORE.SYSTEM.SOLV>
0

>  <SCORE.SYSTEM.norm>
0

>  <SCORE.heavy>
46

>  <SCORE.norm>
-1.16445

>  <RMSD>
0.456

$$$$
lig.pdb
 OpenBabel11021811523D
libRbt.so/2013.1/901 2013/11/27
 46 52  0  0  0  0  0  0  0  0999 V2000
  159.6591   46.2671  143.4331 P   0  0  2  0  0  0  0  0  0  0  0  0
  160.2942   47.6095  143.7235 O   0  0  0  0  0  0  0  0  0  0  0  0
  159.1627   46.0422  142.0280 O   0  0  0  0  0  0  0  0  0  0  0  0
  158.4524   45.9592  144.4500 O   0  0  0  0  0  0  0  0  0  0  0  0
  158.2117   46.7760  145.5884 C   0  0  0  0  0  0  0  0  0  0  0  0
  157.2963   46.0532  146.5627 C   0  0  1  0  0  0  0  0  0  0  0  0
  155.9947   46.6082  146.4372 O   0  0  0  0  0  0  0  0  0  0  0  0
  157.1439   44.5544  146.3363 C   0  0  1  0  0  0  0  0  0  0  0  0
  157.9106   43.8453  147.2986 O   0  0  0  0  0  0  0  0  0  0  0  0
  155.6807   44.3018  146.6229 C   0  0  1  0  0  0  0  0  0  0  0  0
  155.5086   43.9984  148.0087 O   0  0  0  0  0  0  0  0  0  0  0  0
  154.9876   45.6099  146.3743 C   0  0  2  0  0  0  0  0  0  0  0  0
  154.4111   45.6036  145.0089 N   0  0  0  0  0  0  0  0  0  0  0  0
  155.0273   46.0393  143.8963 C   0  0  0  0  0  0  0  0  0  0  0  0
  154.2167   45.9072  142.8190 N   0  0  0  0  0  0  0  0  0  0  0  0
  153.0530   45.3773  143.2357 C   0  0  0  0  0  0  0  0  0  0  0  0
  151.7709   44.9792  142.6082 C   0  0  0  0  0  0  0  0  0  0  0  0
  151.5967   45.1296  141.3749 O   0  0  0  0  0  0  0  0  0  0  0  0
  150.8174   44.4617  143.4016 N   0  0  0  0  0  0  0  0  0  0  0  0
  151.0087   44.3038  144.7250 C   0  0  0  0  0  0  0  0  0  0  0  0
  150.0159   43.7733  145.4735 N   0  0  0  0  0  0  0  0  0  0  0  0
  152.1524   44.6458  145.3605 N   0  0  0  0  0  0  0  0  0  0  0  0
  153.1910   45.1783  144.6818 C   0  0  0  0  0  0  0  0  0  0  0  0
  158.2094   42.2524  147.2028 P   0  0  2  0  0  0  0  0  0  0  0  0
  156.9148   41.5196  146.9476 O   0  0  0  0  0  0  0  0  0  0  0  0
  159.0732   41.9143  148.4035 O   0  0  0  0  0  0  0  0  0  0  0  0
  159.0983   42.1473  145.8581 O   0  0  0  0  0  0  0  0  0  0  0  0
  160.4896   42.4629  145.8933 C   0  0  0  0  0  0  0  0  0  0  0  0
  161.0746   42.7645  144.5101 C   0  0  1  0  0  0  0  0  0  0  0  0
  161.1969   41.5462  143.7728 O   0  0  0  0  0  0  0  0  0  0  0  0
  160.2475   43.7192  143.6519 C   0  0  1  0  0  0  0  0  0  0  0  0
  160.6870   45.0717  143.7703 O   0  0  0  0  0  0  0  0  0  0  0  0
  160.4784   43.1782  142.2533 C   0  0  1  0  0  0  0  0  0  0  0  0
  161.6607   43.7417  141.6785 O   0  0  0  0  0  0  0  0  0  0  0  0
  160.7227   41.6943  142.4318 C   0  0  2  0  0  0  0  0  0  0  0  0
  159.4402   40.9605  142.2950 N   0  0  0  0  0  0  0  0  0  0  0  0
  158.9259   40.1014  143.1973 C   0  0  0  0  0  0  0  0  0  0  0  0
  157.7274   39.5970  142.7919 N   0  0  0  0  0  0  0  0  0  0  0  0
  157.4504   40.1463  141.5986 C   0  0  0  0  0  0  0  0  0  0  0  0
  156.3535   40.0460  140.6024 C   0  0  0  0  0  0  0  0  0  0  0  0
  155.3502   39.3228  140.7821 O   0  0  0  0  0  0  0  0  0  0  0  0
  156.4577   40.7841  139.4960 N   0  0  0  0  0  0  0  0  0  0  0  0
  157.5114   41.5807  139.2592 C   0  0  0  0  0  0  0  0  0  0  0  0
  157.5197   42.2679  138.1073 N   0  0  0  0  0  0  0  0  0  0  0  0
  158.5528   41.7189  140.1128 N   0  0  0  0  0  0  0  0  0  0  0  0
  158.5818   41.0395  141.2785 C   0  0  0  0  0  0  0  0  0  0  0  0
  1  3  2  6  0  0  0
  1 32  1  0  0  0  0
  1  2  1  0  0  0  0
  1  4  1  0  0  0  0
  4  5  1  0  0  0  0
  6  5  1  6  0  0  0
  7  6  1  0  0  0  0
  8  6  1  0  0  0  0
  8 10  1  0  0  0  0
  8  9  1  1  0  0  0
 10 11  1  1  0  0  0
 12 13  1  6  0  0  0
 12  7  1  0  0  0  0
 12 10  1  0  0  0  0
 14 13  1  0  0  0  0
 15 16  1  0  0  0  0
 15 14  2  0  0  0  0
 16 23  2  0  0  0  0
 17 16  1  0  0  0  0
 17 19  1  0  0  0  0
 18 17  2  0  0  0  0
 19 20  2  0  0  0  0
 20 22  1  0  0  0  0
 20 21  1  0  0  0  0
 23 13  1  0  0  0  0
 23 22  1  0  0  0  0
 24 25  2  6  0  0  0
 24  9  1  0  0  0  0
 24 26  1  0  0  0  0
 27 28  1  0  0  0  0
 27 24  1  0  0  0  0
 29 30  1  6  0  0  0
 29 28  1  0  0  0  0
 31 32  1  6  0  0  0
 31 29  1  0  0  0  0
 33 34  1  1  0  0  0
 33 35  1  0  0  0  0
 33 31  1  0  0  0  0
 35 36  1  1  0  0  0
 35 30  1  0  0  0  0
 36 37  1  0  0  0  0
 38 37  2  0  0  0  0
 39 38  1  0  0  0  0
 40 41  2  0  0  0  0
 40 39  1  0  0  0  0
 42 40  1  0  0  0  0
 43 42  2  0  0  0  0
 43 45  1  0  0  0  0
 44 43  1  0  0  0  0
 45 46  1  0  0  0  0
 46 39  2  0  0  0  0
 46 36  1  0  0  0  0
M  END
>  <CHROM.1>
24.11092954,-11.00897220,157.15887960,43.59822406,143.94526282,-0.36882888
-0.15993667,1.01420322

>  <Name>
lig.pdb

>  <RI>
0

>  <Rbt.Current_Directory>
/home/itssahil/PROJECTS/Mol_Feturizer/New_Systems/rnas/4yb0

>  <Rbt.Executable>
rbdock ($Id: //depot/dev/client3/rdock/2013.1/src/exe/rbdock.cxx#4 $)

>  <Rbt.Library>
libRbt.so (2013.1, Build901 2013/11/27)

>  <Rbt.Parameter_File>
/export/apps/rDock/src/rDock_2013.1_src/data/scripts/dock_solv.prm

>  <Rbt.Receptor>
prm/pocket_docking_7.prm

>  <SCORE>
-53.6411

>  <SCORE.INTER>
-53.4966

>  <SCORE.INTER.CONST>
1

>  <SCORE.INTER.POLAR>
0

>  <SCORE.INTER.ROT>
2

>  <SCORE.INTER.SOLV>
31.1838

>  <SCORE.INTER.VDW>
-50.9923

>  <SCORE.INTER.norm>
-1.16297

>  <SCORE.INTRA>
-0.144538

>  <SCORE.INTRA.DIHEDRAL>
-0.0194731

>  <SCORE.INTRA.DIHEDRAL.0>
4.74153

>  <SCORE.INTRA.POLAR>
0

>  <SCORE.INTRA.POLAR.0>
0

>  <SCORE.INTRA.REPUL>
0

>  <SCORE.INTRA.REPUL.0>
0

>  <SCORE.INTRA.SOLV>
0.00634717

>  <SCORE.INTRA.SOLV.lig_0>
-60.4375

>  <SCORE.INTRA.VDW>
-0.137975

>  <SCORE.INTRA.VDW.0>
-1.83689

>  <SCORE.INTRA.norm>
-0.00314214

>  <SCORE.RESTR>
0

>  <SCORE.RESTR.CAVITY>
0

>  <SCORE.RESTR.norm>
0

>  <SCORE.SYSTEM>
0

>  <SCORE.SYSTEM.CONST>
0

>  <SCORE.SYSTEM.DIHEDRAL>
0

>  <SCORE.SYSTEM.SOLV>
0

>  <SCORE.SYSTEM.norm>
0

>  <SCORE.heavy>
46

>  <SCORE.norm>
-1.16611

>  <RMSD>
0.456

$$$$
lig.pdb
 OpenBabel11021811523D
libRbt.so/2013.1/901 2013/11/27
 46 52  0  0  0  0  0  0  0  0999 V2000
  159.6435   46.3007  143.4537 P   0  0  2  0  0  0  0  0  0  0  0  0
  160.2819   47.6372  143.7632 O   0  0  0  0  0  0  0  0  0  0  0  0
  159.1650   46.0895  142.0403 O   0  0  0  0  0  0  0  0  0  0  0  0
  158.4215   45.9915  144.4517 O   0  0  0  0  0  0  0  0  0  0  0  0
  158.1698   46.8007  145.5932 C   0  0  0  0  0  0  0  0  0  0  0  0
  157.2374   46.0753  146.5493 C   0  0  1  0  0  0  0  0  0  0  0  0
  155.9407   46.6385  146.4107 O   0  0  0  0  0  0  0  0  0  0  0  0
  157.0800   44.5793  146.3091 C   0  0  1  0  0  0  0  0  0  0  0  0
  157.8297   43.8584  147.2760 O   0  0  0  0  0  0  0  0  0  0  0  0
  155.6117   44.3325  146.5738 C   0  0  1  0  0  0  0  0  0  0  0  0
  155.4192   44.0193  147.9547 O   0  0  0  0  0  0  0  0  0  0  0  0
  154.9291   45.6464  146.3263 C   0  0  2  0  0  0  0  0  0  0  0  0
  154.3711   45.6540  144.9532 N   0  0  0  0  0  0  0  0  0  0  0  0
  154.9355   46.2373  143.8815 C   0  0  0  0  0  0  0  0  0  0  0  0
  154.1592   46.0713  142.7837 N   0  0  0  0  0  0  0  0  0  0  0  0
  153.0708   45.3689  143.1455 C   0  0  0  0  0  0  0  0  0  0  0  0
  151.8577   44.8493  142.4714 C   0  0  0  0  0  0  0  0  0  0  0  0
  151.6768   45.0557  141.2472 O   0  0  0  0  0  0  0  0  0  0  0  0
  150.9726   44.1620  143.2135 N   0  0  0  0  0  0  0  0  0  0  0  0
  151.1706   43.9446  144.5275 C   0  0  0  0  0  0  0  0  0  0  0  0
  150.2488   43.2422  145.2233 N   0  0  0  0  0  0  0  0  0  0  0  0
  152.2538   44.3902  145.2035 N   0  0  0  0  0  0  0  0  0  0  0  0
  153.2202   45.0960  144.5783 C   0  0  0  0  0  0  0  0  0  0  0  0
  158.1212   42.2646  147.1716 P   0  0  2  0  0  0  0  0  0  0  0  0
  156.8261   41.5411  146.8931 O   0  0  0  0  0  0  0  0  0  0  0  0
  158.9668   41.9124  148.3811 O   0  0  0  0  0  0  0  0  0  0  0  0
  159.0276   42.1651  145.8382 O   0  0  0  0  0  0  0  0  0  0  0  0
  160.4199   42.4728  145.8947 C   0  0  0  0  0  0  0  0  0  0  0  0
  161.0252   42.7819  144.5219 C   0  0  1  0  0  0  0  0  0  0  0  0
  161.1509   41.5688  143.7767 O   0  0  0  0  0  0  0  0  0  0  0  0
  160.2151   43.7480  143.6602 C   0  0  1  0  0  0  0  0  0  0  0  0
  160.6602   45.0970  143.7952 O   0  0  0  0  0  0  0  0  0  0  0  0
  160.4619   43.2167  142.2606 C   0  0  1  0  0  0  0  0  0  0  0  0
  161.6550   43.7781  141.7063 O   0  0  0  0  0  0  0  0  0  0  0  0
  160.6958   41.7301  142.4306 C   0  0  2  0  0  0  0  0  0  0  0  0
  159.4112   41.0045  142.2708 N   0  0  0  0  0  0  0  0  0  0  0  0
  158.9128   40.0904  143.1268 C   0  0  0  0  0  0  0  0  0  0  0  0
  157.7076   39.6105  142.7116 N   0  0  0  0  0  0  0  0  0  0  0  0
  157.4098   40.2324  141.5597 C   0  0  0  0  0  0  0  0  0  0  0  0
  156.2960   40.1926  140.5781 C   0  0  0  0  0  0  0  0  0  0  0  0
  155.2961   39.4583  140.7300 O   0  0  0  0  0  0  0  0  0  0  0  0
  156.3809   40.9980  139.5180 N   0  0  0  0  0  0  0  0  0  0  0  0
  157.4301   41.8091  139.3129 C   0  0  0  0  0  0  0  0  0  0  0  0
  157.4183   42.5663  138.2058 N   0  0  0  0  0  0  0  0  0  0  0  0
  158.4861   41.8955  140.1554 N   0  0  0  0  0  0  0  0  0  0  0  0
  158.5354   41.1452  141.2761 C   0  0  0  0  0  0  0  0  0  0  0  0
  1  3  2  6  0  0  0
  1 32  1  0  0  0  0
  1  2  1  0  0  0  0
  1  4  1  0  0  0  0
  4  5  1  0  0  0  0
  6  5  1  6  0  0  0
  7  6  1  0  0  0  0
  8  6  1  0  0  0  0
  8 10  1  0  0  0  0
  8  9  1  1  0  0  0
 10 11  1  1  0  0  0
 12 13  1  6  0  0  0
 12  7  1  0  0  0  0
 12 10  1  0  0  0  0
 14 13  1  0  0  0  0
 15 16  1  0  0  0  0
 15 14  2  0  0  0  0
 16 23  2  0  0  0  0
 17 16  1  0  0  0  0
 17 19  1  0  0  0  0
 18 17  2  0  0  0  0
 19 20  2  0  0  0  0
 20 22  1  0  0  0  0
 20 21  1  0  0  0  0
 23 13  1  0  0  0  0
 23 22  1  0  0  0  0
 24 25  2  6  0  0  0
 24  9  1  0  0  0  0
 24 26  1  0  0  0  0
 27 28  1  0  0  0  0
 27 24  1  0  0  0  0
 29 30  1  6  0  0  0
 29 28  1  0  0  0  0
 31 32  1  6  0  0  0
 31 29  1  0  0  0  0
 33 34  1  1  0  0  0
 33 35  1  0  0  0  0
 33 31  1  0  0  0  0
 35 36  1  1  0  0  0
 35 30  1  0  0  0  0
 36 37  1  0  0  0  0
 38 37  2  0  0  0  0
 39 38  1  0  0  0  0
 40 41  2  0  0  0  0
 40 39  1  0  0  0  0
 42 40  1  0  0  0  0
 43 42  2  0  0  0  0
 43 45  1  0  0  0  0
 44 43  1  0  0  0  0
 45 46  1  0  0  0  0
 46 39  2  0  0  0  0
 46 36  1  0  0  0  0
M  END
>  <CHROM.1>
15.66344745,-14.59532309,157.13219890,43.61463027,143.91234966,-0.30616422
-0.14480939,1.01940358

>  <Name>
lig.pdb

>  <RI>
0

>  <Rbt.Current_Directory>
/home/itssahil/PROJECTS/Mol_Feturizer/New_Systems/rnas/4yb0

>  <Rbt.Executable>
rbdock ($Id: //depot/dev/client3/rdock/2013.1/src/exe/rbdock.cxx#4 $)

>  <Rbt.Library>
libRbt.so (2013.1, Build901 2013/11/27)

>  <Rbt.Parameter_File>
/export/apps/rDock/src/rDock_2013.1_src/data/scripts/dock_solv.prm

>  <Rbt.Receptor>
prm/pocket_docking_7.prm

>  <SCORE>
-53.5778

>  <SCORE.INTER>
-53.5245

>  <SCORE.INTER.CONST>
1

>  <SCORE.INTER.POLAR>
0

>  <SCORE.INTER.ROT>
2

>  <SCORE.INTER.SOLV>
30.5457

>  <SCORE.INTER.VDW>
-50.7982

>  <SCORE.INTER.norm>
-1.16358

>  <SCORE.INTRA>
-0.0533889

>  <SCORE.INTRA.DIHEDRAL>
-0.0183136

>  <SCORE.INTRA.DIHEDRAL.0>
4.74153

>  <SCORE.INTRA.POLAR>
0

>  <SCORE.INTRA.POLAR.0>
0

>  <SCORE.INTRA.REPUL>
0

>  <SCORE.INTRA.REPUL.0>
0

>  <SCORE.INTRA.SOLV>
-0.00690294

>  <SCORE.INTRA.SOLV.lig_0>
-60.4375

>  <SCORE.INTRA.VDW>
-0.0407807

>  <SCORE.INTRA.VDW.0>
-1.83689

>  <SCORE.INTRA.norm>
-0.00116063

>  <SCORE.RESTR>
0

>  <SCORE.RESTR.CAVITY>
0

>  <SCORE.RESTR.norm>
0

>  <SCORE.SYSTEM>
0

>  <SCORE.SYSTEM.CONST>
0

>  <SCORE.SYSTEM.DIHEDRAL>
0

>  <SCORE.SYSTEM.SOLV>
0

>  <SCORE.SYSTEM.norm>
0

>  <SCORE.heavy>
46

>  <SCORE.norm>
-1.16474

>  <RMSD>
0.456

$$$$
lig.pdb
 OpenBabel11021811523D
libRbt.so/2013.1/901 2013/11/27
 46 52  0  0  0  0  0  0  0  0999 V2000
  159.6739   46.2333  143.4512 P   0  0  2  0  0  0  0  0  0  0  0  0
  160.3205   47.5700  143.7426 O   0  0  0  0  0  0  0  0  0  0  0  0
  159.1872   46.0088  142.0428 O   0  0  0  0  0  0  0  0  0  0  0  0
  158.4555   45.9414  144.4588 O   0  0  0  0  0  0  0  0  0  0  0  0
  158.2136   46.7645  145.5924 C   0  0  0  0  0  0  0  0  0  0  0  0
  157.2826   46.0545  146.5613 C   0  0  1  0  0  0  0  0  0  0  0  0
  155.9879   46.6225  146.4229 O   0  0  0  0  0  0  0  0  0  0  0  0
  157.1165   44.5566  146.3386 C   0  0  1  0  0  0  0  0  0  0  0  0
  157.8676   43.8429  147.3097 O   0  0  0  0  0  0  0  0  0  0  0  0
  155.6484   44.3202  146.6135 C   0  0  1  0  0  0  0  0  0  0  0  0
  155.4614   44.0233  147.9987 O   0  0  0  0  0  0  0  0  0  0  0  0
  154.9711   45.6346  146.3547 C   0  0  2  0  0  0  0  0  0  0  0  0
  154.4061   45.6297  144.9845 N   0  0  0  0  0  0  0  0  0  0  0  0
  155.0190   46.0964  143.8827 C   0  0  0  0  0  0  0  0  0  0  0  0
  154.2213   45.9555  142.7969 N   0  0  0  0  0  0  0  0  0  0  0  0
  153.0694   45.3883  143.1971 C   0  0  0  0  0  0  0  0  0  0  0  0
  151.8040   44.9628  142.5537 C   0  0  0  0  0  0  0  0  0  0  0  0
  151.6358   45.1240  141.3209 O   0  0  0  0  0  0  0  0  0  0  0  0
  150.8589   44.4090  143.3324 N   0  0  0  0  0  0  0  0  0  0  0  0
  151.0437   44.2396  144.6553 C   0  0  0  0  0  0  0  0  0  0  0  0
  150.0600   43.6723  145.3887 N   0  0  0  0  0  0  0  0  0  0  0  0
  152.1722   44.6051  145.3048 N   0  0  0  0  0  0  0  0  0  0  0  0
  153.2010   45.1748  144.6417 C   0  0  0  0  0  0  0  0  0  0  0  0
  158.1507   42.2466  147.2217 P   0  0  2  0  0  0  0  0  0  0  0  0
  156.8507   41.5265  146.9578 O   0  0  0  0  0  0  0  0  0  0  0  0
  159.0007   41.9037  148.4307 O   0  0  0  0  0  0  0  0  0  0  0  0
  159.0498   42.1278  145.8849 O   0  0  0  0  0  0  0  0  0  0  0  0
  160.4439   42.4291  145.9310 C   0  0  0  0  0  0  0  0  0  0  0  0
  161.0437   42.7199  144.5517 C   0  0  1  0  0  0  0  0  0  0  0  0
  161.1596   41.4979  143.8196 O   0  0  0  0  0  0  0  0  0  0  0  0
  160.2340   43.6803  143.6834 C   0  0  1  0  0  0  0  0  0  0  0  0
  160.6864   45.0285  143.8011 O   0  0  0  0  0  0  0  0  0  0  0  0
  160.4710   43.1322  142.2886 C   0  0  1  0  0  0  0  0  0  0  0  0
  161.6640   43.6814  141.7221 O   0  0  0  0  0  0  0  0  0  0  0  0
  160.6984   41.6464  142.4740 C   0  0  2  0  0  0  0  0  0  0  0  0
  159.4095   40.9255  142.3288 N   0  0  0  0  0  0  0  0  0  0  0  0
  158.8770   40.0775  143.2310 C   0  0  0  0  0  0  0  0  0  0  0  0
  157.6773   39.5834  142.8165 N   0  0  0  0  0  0  0  0  0  0  0  0
  157.4182   40.1282  141.6173 C   0  0  0  0  0  0  0  0  0  0  0  0
  156.3304   40.0335  140.6106 C   0  0  0  0  0  0  0  0  0  0  0  0
  155.3176   39.3222  140.7846 O   0  0  0  0  0  0  0  0  0  0  0  0
  156.4536   40.7637  139.5009 N   0  0  0  0  0  0  0  0  0  0  0  0
  157.5180   41.5475  139.2700 C   0  0  0  0  0  0  0  0  0  0  0  0
  157.5452   42.2275  138.1140 N   0  0  0  0  0  0  0  0  0  0  0  0
  158.5523   41.6798  140.1332 N   0  0  0  0  0  0  0  0  0  0  0  0
  158.5623   41.0074  141.3032 C   0  0  0  0  0  0  0  0  0  0  0  0
  1  3  2  6  0  0  0
  1 32  1  0  0  0  0
  1  2  1  0  0  0  0
  1  4  1  0  0  0  0
  4  5  1  0  0  0  0
  6  5  1  6  0  0  0
  7  6  1  0  0  0  0
  8  6  1  0  0  0  0
  8 10  1  0  0  0  0
  8  9  1  1  0  0  0
 10 11  1  1  0  0  0
 12 13  1  6  0  0  0
 12  7  1  0  0  0  0
 12 10  1  0  0  0  0
 14 13  1  0  0  0  0
 15 16  1  0  0  0  0
 15 14  2  0  0  0  0
 16 23  2  0  0  0  0
 17 16  1  0  0  0  0
 17 19  1  0  0  0  0
 18 17  2  0  0  0  0
 19 20  2  0  0  0  0
 20 22  1  0  0  0  0
 20 21  1  0  0  0  0
 23 13  1  0  0  0  0
 23 22  1  0  0  0  0
 24 25  2  6  0  0  0
 24  9  1  0  0  0  0
 24 26  1  0  0  0  0
 27 28  1  0  0  0  0
 27 24  1  0  0  0  0
 29 30  1  6  0  0  0
 29 28  1  0  0  0  0
 31 32  1  6  0  0  0
 31 29  1  0  0  0  0
 33 34  1  1  0  0  0
 33 35  1  0  0  0  0
 33 31  1  0  0  0  0
 35 36  1  1  0  0  0
 35 30  1  0  0  0  0
 36 37  1  0  0  0  0
 38 37  2  0  0  0  0
 39 38  1  0  0  0  0
 40 41  2  0  0  0  0
 40 39  1  0  0  0  0
 42 40  1  0  0  0  0
 43 42  2  0  0  0  0
 43 45  1  0  0  0  0
 44 43  1  0  0  0  0
 45 46  1  0  0  0  0
 46 39  2  0  0  0  0
 46 36  1  0  0  0  0
M  END
>  <CHROM.1>
21.73980570,-10.82618247,157.14706904,43.57958891,143.94848122,-0.36313137
-0.16431810,1.00812706

>  <Name>
lig.pdb

>  <RI>
0

>  <Rbt.Current_Directory>
/home/itssahil/PROJECTS/Mol_Feturizer/New_Systems/rnas/4yb0

>  <Rbt.Executable>
rbdock ($Id: //depot/dev/client3/rdock/2013.1/src/exe/rbdock.cxx#4 $)

>  <Rbt.Library>
libRbt.so (2013.1, Build901 2013/11/27)

>  <Rbt.Parameter_File>
/export/apps/rDock/src/rDock_2013.1_src/data/scripts/dock_solv.prm

>  <Rbt.Receptor>
prm/pocket_docking_3.prm

>  <SCORE>
-53.606

>  <SCORE.INTER>
-53.4974

>  <SCORE.INTER.CONST>
1

>  <SCORE.INTER.POLAR>
0

>  <SCORE.INTER.ROT>
2

>  <SCORE.INTER.SOLV>
31.0056

>  <SCORE.INTER.VDW>
-50.9335

>  <SCORE.INTER.norm>
-1.16299

>  <SCORE.INTRA>
-0.108656

>  <SCORE.INTRA.DIHEDRAL>
-0.017044

>  <SCORE.INTRA.DIHEDRAL.0>
4.74153

>  <SCORE.INTRA.POLAR>
0

>  <SCORE.INTRA.POLAR.0>
0

>  <SCORE.INTRA.REPUL>
0

>  <SCORE.INTRA.REPUL.0>
0

>  <SCORE.INTRA.SOLV>
0.00429851

>  <SCORE.INTRA.SOLV.lig_0>
-60.4375

>  <SCORE.INTRA.VDW>
-0.102283

>  <SCORE.INTRA.VDW.0>
-1.83689

>  <SCORE.INTRA.norm>
-0.00236208

>  <SCORE.RESTR>
0

>  <SCORE.RESTR.CAVITY>
0

>  <SCORE.RESTR.norm>
0

>  <SCORE.SYSTEM>
0

>  <SCORE.SYSTEM.CONST>
0

>  <SCORE.SYSTEM.DIHEDRAL>
0

>  <SCORE.SYSTEM.SOLV>
0

>  <SCORE.SYSTEM.norm>
0

>  <SCORE.heavy>
46

>  <SCORE.norm>
-1.16535

>  <RMSD>
0.457

$$$$
lig.pdb
 OpenBabel11021811523D
libRbt.so/2013.1/901 2013/11/27
 46 52  0  0  0  0  0  0  0  0999 V2000
  159.6620   46.2402  143.4412 P   0  0  2  0  0  0  0  0  0  0  0  0
  160.3059   47.5788  143.7295 O   0  0  0  0  0  0  0  0  0  0  0  0
  159.1671   46.0150  142.0357 O   0  0  0  0  0  0  0  0  0  0  0  0
  158.4510   45.9435  144.4563 O   0  0  0  0  0  0  0  0  0  0  0  0
  158.2136   46.7650  145.5920 C   0  0  0  0  0  0  0  0  0  0  0  0
  157.2910   46.0512  146.5663 C   0  0  1  0  0  0  0  0  0  0  0  0
  155.9936   46.6150  146.4365 O   0  0  0  0  0  0  0  0  0  0  0  0
  157.1286   44.5530  146.3436 C   0  0  1  0  0  0  0  0  0  0  0  0
  157.8881   43.8410  147.3094 O   0  0  0  0  0  0  0  0  0  0  0  0
  155.6630   44.3114  146.6276 C   0  0  1  0  0  0  0  0  0  0  0  0
  155.4858   44.0130  148.0138 O   0  0  0  0  0  0  0  0  0  0  0  0
  154.9797   45.6237  146.3741 C   0  0  2  0  0  0  0  0  0  0  0  0
  154.4060   45.6179  145.0075 N   0  0  0  0  0  0  0  0  0  0  0  0
  155.0206   46.0636  143.8979 C   0  0  0  0  0  0  0  0  0  0  0  0
  154.2135   45.9287  142.8183 N   0  0  0  0  0  0  0  0  0  0  0  0
  153.0537   45.3866  143.2305 C   0  0  0  0  0  0  0  0  0  0  0  0
  151.7766   44.9796  142.5986 C   0  0  0  0  0  0  0  0  0  0  0  0
  151.6036   45.1335  141.3656 O   0  0  0  0  0  0  0  0  0  0  0  0
  150.8261   44.4503  143.3879 N   0  0  0  0  0  0  0  0  0  0  0  0
  151.0162   44.2886  144.7110 C   0  0  0  0  0  0  0  0  0  0  0  0
  150.0266   43.7461  145.4552 N   0  0  0  0  0  0  0  0  0  0  0  0
  152.1554   44.6382  145.3504 N   0  0  0  0  0  0  0  0  0  0  0  0
  153.1905   45.1829  144.6760 C   0  0  0  0  0  0  0  0  0  0  0  0
  158.1760   42.2458  147.2185 P   0  0  2  0  0  0  0  0  0  0  0  0
  156.8767   41.5215  146.9623 O   0  0  0  0  0  0  0  0  0  0  0  0
  159.0348   41.9049  148.4219 O   0  0  0  0  0  0  0  0  0  0  0  0
  159.0670   42.1308  145.8760 O   0  0  0  0  0  0  0  0  0  0  0  0
  160.4603   42.4368  145.9134 C   0  0  0  0  0  0  0  0  0  0  0  0
  161.0504   42.7305  144.5306 C   0  0  1  0  0  0  0  0  0  0  0  0
  161.1657   41.5094  143.7968 O   0  0  0  0  0  0  0  0  0  0  0  0
  160.2320   43.6888  143.6681 C   0  0  1  0  0  0  0  0  0  0  0  0
  160.6807   45.0384  143.7838 O   0  0  0  0  0  0  0  0  0  0  0  0
  160.4620   43.1424  142.2714 C   0  0  1  0  0  0  0  0  0  0  0  0
  161.6495   43.6960  141.6977 O   0  0  0  0  0  0  0  0  0  0  0  0
  160.6955   41.6574  142.4543 C   0  0  2  0  0  0  0  0  0  0  0  0
  159.4081   40.9322  142.3168 N   0  0  0  0  0  0  0  0  0  0  0  0
  158.8845   40.0814  143.2214 C   0  0  0  0  0  0  0  0  0  0  0  0
  157.6837   39.5837  142.8143 N   0  0  0  0  0  0  0  0  0  0  0  0
  157.4148   40.1291  141.6175 C   0  0  0  0  0  0  0  0  0  0  0  0
  156.3207   40.0319  140.6179 C   0  0  0  0  0  0  0  0  0  0  0  0
  155.3115   39.3169  140.7977 O   0  0  0  0  0  0  0  0  0  0  0  0
  156.4341   40.7637  139.5083 N   0  0  0  0  0  0  0  0  0  0  0  0
  157.4944   41.5514  139.2713 C   0  0  0  0  0  0  0  0  0  0  0  0
  157.5116   42.2328  138.1160 N   0  0  0  0  0  0  0  0  0  0  0  0
  158.5338   41.6862  140.1278 N   0  0  0  0  0  0  0  0  0  0  0  0
  158.5539   41.0125  141.2969 C   0  0  0  0  0  0  0  0  0  0  0  0
  1  3  2  6  0  0  0
  1 32  1  0  0  0  0
  1  2  1  0  0  0  0
  1  4  1  0  0  0  0
  4  5  1  0  0  0  0
  6  5  1  6  0  0  0
  7  6  1  0  0  0  0
  8  6  1  0  0  0  0
  8 10  1  0  0  0  0
  8  9  1  1  0  0  0
 10 11  1  1  0  0  0
 12 13  1  6  0  0  0
 12  7  1  0  0  0  0
 12 10  1  0  0  0  0
 14 13  1  0  0  0  0
 15 16  1  0  0  0  0
 15 14  2  0  0  0  0
 16 23  2  0  0  0  0
 17 16  1  0  0  0  0
 17 19  1  0  0  0  0
 18 17  2  0  0  0  0
 19 20  2  0  0  0  0
 20 22  1  0  0  0  0
 20 21  1  0  0  0  0
 23 13  1  0  0  0  0
 23 22  1  0  0  0  0
 24 25  2  6  0  0  0
 24  9  1  0  0  0  0
 24 26  1  0  0  0  0
 27 28  1  0  0  0  0
 27 24  1  0  0  0  0
 29 30  1  6  0  0  0
 29 28  1  0  0  0  0
 31 32  1  6  0  0  0
 31 29  1  0  0  0  0
 33 34  1  1  0  0  0
 33 35  1  0  0  0  0
 33 31  1  0  0  0  0
 35 36  1  1  0  0  0
 35 30  1  0  0  0  0
 36 37  1  0  0  0  0
 38 37  2  0  0  0  0
 39 38  1  0  0  0  0
 40 41  2  0  0  0  0
 40 39  1  0  0  0  0
 42 40  1  0  0  0  0
 43 42  2  0  0  0  0
 43 45  1  0  0  0  0
 44 43  1  0  0  0  0
 45 46  1  0  0  0  0
 46 39  2  0  0  0  0
 46 36  1  0  0  0  0
M  END
>  <CHROM.1>
23.11241667,-10.85807450,157.14428300,43.58466234,143.95387913,-0.36971454
-0.16319301,1.00983961

>  <Name>
lig.pdb

>  <RI>
0

>  <Rbt.Current_Directory>
/home/itssahil/PROJECTS/Mol_Feturizer/New_Systems/rnas/4yb0

>  <Rbt.Executable>
rbdock ($Id: //depot/dev/client3/rdock/2013.1/src/exe/rbdock.cxx#4 $)

>  <Rbt.Library>
libRbt.so (2013.1, Build901 2013/11/27)

>  <Rbt.Parameter_File>
/export/apps/rDock/src/rDock_2013.1_src/data/scripts/dock_solv.prm

>  <Rbt.Receptor>
prm/pocket_docking_3.prm

>  <SCORE>
-53.7216

>  <SCORE.INTER>
-53.584

>  <SCORE.INTER.CONST>
1

>  <SCORE.INTER.POLAR>
0

>  <SCORE.INTER.ROT>
2

>  <SCORE.INTER.SOLV>
31.2036

>  <SCORE.INTER.VDW>
-51.0572

>  <SCORE.INTER.norm>
-1.16487

>  <SCORE.INTRA>
-0.137589

>  <SCORE.INTRA.DIHEDRAL>
-0.0183389

>  <SCORE.INTRA.DIHEDRAL.0>
4.74153

>  <SCORE.INTRA.POLAR>
0

>  <SCORE.INTRA.POLAR.0>
0

>  <SCORE.INTRA.REPUL>
0

>  <SCORE.INTRA.REPUL.0>
0

>  <SCORE.INTRA.SOLV>
0.00593312

>  <SCORE.INTRA.SOLV.lig_0>
-60.4375

>  <SCORE.INTRA.VDW>
-0.131387

>  <SCORE.INTRA.VDW.0>
-1.83689

>  <SCORE.INTRA.norm>
-0.00299108

>  <SCORE.RESTR>
0

>  <SCORE.RESTR.CAVITY>
0

>  <SCORE.RESTR.norm>
0

>  <SCORE.SYSTEM>
0

>  <SCORE.SYSTEM.CONST>
0

>  <SCORE.SYSTEM.DIHEDRAL>
0

>  <SCORE.SYSTEM.SOLV>
0

>  <SCORE.SYSTEM.norm>
0

>  <SCORE.heavy>
46

>  <SCORE.norm>
-1.16786

>  <RMSD>
0.457

$$$$
lig.pdb
 OpenBabel11021811523D
libRbt.so/2013.1/901 2013/11/27
 46 52  0  0  0  0  0  0  0  0999 V2000
  159.6748   46.2407  143.4184 P   0  0  2  0  0  0  0  0  0  0  0  0
  160.3227   47.5760  143.7131 O   0  0  0  0  0  0  0  0  0  0  0  0
  159.1882   46.0200  142.0092 O   0  0  0  0  0  0  0  0  0  0  0  0
  158.4557   45.9478  144.4249 O   0  0  0  0  0  0  0  0  0  0  0  0
  158.2144   46.7685  145.5604 C   0  0  0  0  0  0  0  0  0  0  0  0
  157.2823   46.0573  146.5274 C   0  0  1  0  0  0  0  0  0  0  0  0
  155.9883   46.6271  146.3899 O   0  0  0  0  0  0  0  0  0  0  0  0
  157.1146   44.5602  146.3011 C   0  0  1  0  0  0  0  0  0  0  0  0
  157.8646   43.8433  147.2707 O   0  0  0  0  0  0  0  0  0  0  0  0
  155.6461   44.3247  146.5750 C   0  0  1  0  0  0  0  0  0  0  0  0
  155.4584   44.0248  147.9595 O   0  0  0  0  0  0  0  0  0  0  0  0
  154.9704   45.6405  146.3191 C   0  0  2  0  0  0  0  0  0  0  0  0
  154.4058   45.6394  144.9487 N   0  0  0  0  0  0  0  0  0  0  0  0
  154.9920   46.1662  143.8595 C   0  0  0  0  0  0  0  0  0  0  0  0
  154.2025   46.0097  142.7699 N   0  0  0  0  0  0  0  0  0  0  0  0
  153.0832   45.3709  143.1547 C   0  0  0  0  0  0  0  0  0  0  0  0
  151.8424   44.8938  142.4997 C   0  0  0  0  0  0  0  0  0  0  0  0
  151.6651   45.0766  141.2713 O   0  0  0  0  0  0  0  0  0  0  0  0
  150.9291   44.2702  143.2635 N   0  0  0  0  0  0  0  0  0  0  0  0
  151.1235   44.0779  144.5819 C   0  0  0  0  0  0  0  0  0  0  0  0
  150.1724   43.4398  145.2999 N   0  0  0  0  0  0  0  0  0  0  0  0
  152.2309   44.4875  145.2413 N   0  0  0  0  0  0  0  0  0  0  0  0
  153.2270   45.1287  144.5936 C   0  0  0  0  0  0  0  0  0  0  0  0
  158.1459   42.2469  147.1790 P   0  0  2  0  0  0  0  0  0  0  0  0
  156.8452   41.5289  146.9131 O   0  0  0  0  0  0  0  0  0  0  0  0
  158.9952   41.9002  148.3875 O   0  0  0  0  0  0  0  0  0  0  0  0
  159.0453   42.1302  145.8423 O   0  0  0  0  0  0  0  0  0  0  0  0
  160.4397   42.4298  145.8894 C   0  0  0  0  0  0  0  0  0  0  0  0
  161.0402   42.7231  144.5110 C   0  0  1  0  0  0  0  0  0  0  0  0
  161.1549   41.5027  143.7760 O   0  0  0  0  0  0  0  0  0  0  0  0
  160.2318   43.6865  143.6448 C   0  0  1  0  0  0  0  0  0  0  0  0
  160.6858   45.0339  143.7657 O   0  0  0  0  0  0  0  0  0  0  0  0
  160.4687   43.1414  142.2487 C   0  0  1  0  0  0  0  0  0  0  0  0
  161.6624   43.6906  141.6838 O   0  0  0  0  0  0  0  0  0  0  0  0
  160.6943   41.6549  142.4307 C   0  0  2  0  0  0  0  0  0  0  0  0
  159.4046   40.9358  142.2834 N   0  0  0  0  0  0  0  0  0  0  0  0
  158.8676   40.0917  143.1866 C   0  0  0  0  0  0  0  0  0  0  0  0
  157.6684   39.5984  142.7697 N   0  0  0  0  0  0  0  0  0  0  0  0
  157.4144   40.1397  141.5677 C   0  0  0  0  0  0  0  0  0  0  0  0
  156.3299   40.0436  140.5576 C   0  0  0  0  0  0  0  0  0  0  0  0
  155.3152   39.3346  140.7305 O   0  0  0  0  0  0  0  0  0  0  0  0
  156.4582   40.7698  139.4459 N   0  0  0  0  0  0  0  0  0  0  0  0
  157.5249   41.5509  139.2160 C   0  0  0  0  0  0  0  0  0  0  0  0
  157.5572   42.2270  138.0580 N   0  0  0  0  0  0  0  0  0  0  0  0
  158.5563   41.6843  140.0824 N   0  0  0  0  0  0  0  0  0  0  0  0
  158.5611   41.0158  141.2547 C   0  0  0  0  0  0  0  0  0  0  0  0
  1  3  2  6  0  0  0
  1 32  1  0  0  0  0
  1  2  1  0  0  0  0
  1  4  1  0  0  0  0
  4  5  1  0  0  0  0
  6  5  1  6  0  0  0
  7  6  1  0  0  0  0
  8  6  1  0  0  0  0
  8 10  1  0  0  0  0
  8  9  1  1  0  0  0
 10 11  1  1  0  0  0
 12 13  1  6  0  0  0
 12  7  1  0  0  0  0
 12 10  1  0  0  0  0
 14 13  1  0  0  0  0
 15 16  1  0  0  0  0
 15 14  2  0  0  0  0
 16 23  2  0  0  0  0
 17 16  1  0  0  0  0
 17 19  1  0  0  0  0
 18 17  2  0  0  0  0
 19 20  2  0  0  0  0
 20 22  1  0  0  0  0
 20 21  1  0  0  0  0
 23 13  1  0  0  0  0
 23 22  1  0  0  0  0
 24 25  2  6  0  0  0
 24  9  1  0  0  0  0
 24 26  1  0  0  0  0
 27 28  1  0  0  0  0
 27 24  1  0  0  0  0
 29 30  1  6  0  0  0
 29 28  1  0  0  0  0
 31 32  1  6  0  0  0
 31 29  1  0  0  0  0
 33 34  1  1  0  0  0
 33 35  1  0  0  0  0
 33 31  1  0  0  0  0
 35 36  1  1  0  0  0
 35 30  1  0  0  0  0
 36 37  1  0  0  0  0
 38 37  2  0  0  0  0
 39 38  1  0  0  0  0
 40 41  2  0  0  0  0
 40 39  1  0  0  0  0
 42 40  1  0  0  0  0
 43 42  2  0  0  0  0
 43 45  1  0  0  0  0
 44 43  1  0  0  0  0
 45 46  1  0  0  0  0
 46 39  2  0  0  0  0
 46 36  1  0  0  0  0
M  END
>  <CHROM.1>
18.30868531,-10.45217931,157.15338492,43.57022894,143.90463270,-0.35923572
-0.15310072,1.00566842

>  <Name>
lig.pdb

>  <RI>
0

>  <Rbt.Current_Directory>
/home/itssahil/PROJECTS/Mol_Feturizer/New_Systems/rnas/4yb0

>  <Rbt.Executable>
rbdock ($Id: //depot/dev/client3/rdock/2013.1/src/exe/rbdock.cxx#4 $)

>  <Rbt.Library>
libRbt.so (2013.1, Build901 2013/11/27)

>  <Rbt.Parameter_File>
/export/apps/rDock/src/rDock_2013.1_src/data/scripts/dock_solv.prm

>  <Rbt.Receptor>
prm/pocket_docking_2.prm

>  <SCORE>
-53.4948

>  <SCORE.INTER>
-53.3971

>  <SCORE.INTER.CONST>
1

>  <SCORE.INTER.POLAR>
0

>  <SCORE.INTER.ROT>
2

>  <SCORE.INTER.SOLV>
30.8974

>  <SCORE.INTER.VDW>
-50.8305

>  <SCORE.INTER.norm>
-1.16081

>  <SCORE.INTRA>
-0.0976665

>  <SCORE.INTRA.DIHEDRAL>
-0.0121015

>  <SCORE.INTRA.DIHEDRAL.0>
4.74153

>  <SCORE.INTRA.POLAR>
0

>  <SCORE.INTRA.POLAR.0>
0

>  <SCORE.INTRA.REPUL>
0

>  <SCORE.INTRA.REPUL.0>
0

>  <SCORE.INTRA.SOLV>
0.00517297

>  <SCORE.INTRA.SOLV.lig_0>
-60.4375

>  <SCORE.INTRA.VDW>
-0.0942022

>  <SCORE.INTRA.VDW.0>
-1.83689

>  <SCORE.INTRA.norm>
-0.00212318

>  <SCORE.RESTR>
0

>  <SCORE.RESTR.CAVITY>
0

>  <SCORE.RESTR.norm>
0

>  <SCORE.SYSTEM>
0

>  <SCORE.SYSTEM.CONST>
0

>  <SCORE.SYSTEM.DIHEDRAL>
0

>  <SCORE.SYSTEM.SOLV>
0

>  <SCORE.SYSTEM.norm>
0

>  <SCORE.heavy>
46

>  <SCORE.norm>
-1.16293

>  <RMSD>
0.458

$$$$
lig.pdb
 OpenBabel11021811523D
libRbt.so/2013.1/901 2013/11/27
 46 52  0  0  0  0  0  0  0  0999 V2000
  158.6191   42.1044  147.4927 P   0  0  2  0  0  0  0  0  0  0  0  0
  159.5247   41.3898  148.4719 O   0  0  0  0  0  0  0  0  0  0  0  0
  157.2280   41.5491  147.3270 O   0  0  0  0  0  0  0  0  0  0  0  0
  159.2973   42.2088  146.0386 O   0  0  0  0  0  0  0  0  0  0  0  0
  160.6585   41.8585  145.8254 C   0  0  0  0  0  0  0  0  0  0  0  0
  161.1359   42.4142  144.4938 C   0  0  1  0  0  0  0  0  0  0  0  0
  161.1725   41.3450  143.5592 O   0  0  0  0  0  0  0  0  0  0  0  0
  160.2544   43.4913  143.8745 C   0  0  1  0  0  0  0  0  0  0  0  0
  160.8548   44.7648  144.0592 O   0  0  0  0  0  0  0  0  0  0  0  0
  160.2863   43.1667  142.3979 C   0  0  1  0  0  0  0  0  0  0  0  0
  161.3740   43.8560  141.7785 O   0  0  0  0  0  0  0  0  0  0  0  0
  160.5951   41.7001  142.3121 C   0  0  2  0  0  0  0  0  0  0  0  0
  159.3306   40.9455  142.1433 N   0  0  0  0  0  0  0  0  0  0  0  0
  158.8281   40.0538  143.0149 C   0  0  0  0  0  0  0  0  0  0  0  0
  157.6665   39.5344  142.5500 N   0  0  0  0  0  0  0  0  0  0  0  0
  157.4076   40.0960  141.3557 C   0  0  0  0  0  0  0  0  0  0  0  0
  156.3414   39.9933  140.3316 C   0  0  0  0  0  0  0  0  0  0  0  0
  155.3758   39.2102  140.5001 O   0  0  0  0  0  0  0  0  0  0  0  0
  156.4509   40.7586  139.2321 N   0  0  0  0  0  0  0  0  0  0  0  0
  157.4901   41.5963  139.0554 C   0  0  0  0  0  0  0  0  0  0  0  0
  157.5458   42.3458  137.9318 N   0  0  0  0  0  0  0  0  0  0  0  0
  158.4956   41.7383  139.9485 N   0  0  0  0  0  0  0  0  0  0  0  0
  158.5099   41.0274  141.0963 C   0  0  0  0  0  0  0  0  0  0  0  0
  160.0820   46.1645  143.7770 P   0  0  2  0  0  0  0  0  0  0  0  0
  159.4294   46.1051  142.4173 O   0  0  0  0  0  0  0  0  0  0  0  0
  161.0678   47.2652  144.1215 O   0  0  0  0  0  0  0  0  0  0  0  0
  158.9032   46.1377  144.8812 O   0  0  0  0  0  0  0  0  0  0  0  0
  159.1809   46.4991  146.2335 C   0  0  0  0  0  0  0  0  0  0  0  0
  158.1259   45.9922  147.2218 C   0  0  1  0  0  0  0  0  0  0  0  0
  156.9346   46.7691  147.0811 O   0  0  0  0  0  0  0  0  0  0  0  0
  157.7233   44.5298  147.0449 C   0  0  1  0  0  0  0  0  0  0  0  0
  158.4651   43.6576  147.8965 O   0  0  0  0  0  0  0  0  0  0  0  0
  156.2522   44.5530  147.4156 C   0  0  1  0  0  0  0  0  0  0  0  0
  156.0804   44.3932  148.8265 O   0  0  0  0  0  0  0  0  0  0  0  0
  155.7685   45.9417  147.0535 C   0  0  2  0  0  0  0  0  0  0  0  0
  155.2221   45.9326  145.6739 N   0  0  0  0  0  0  0  0  0  0  0  0
  155.8426   46.4157  144.5793 C   0  0  0  0  0  0  0  0  0  0  0  0
  155.0909   46.2509  143.4555 N   0  0  0  0  0  0  0  0  0  0  0  0
  153.9549   45.6388  143.8258 C   0  0  0  0  0  0  0  0  0  0  0  0
  152.7173   45.1765  143.1473 C   0  0  0  0  0  0  0  0  0  0  0  0
  152.5442   45.2979  141.9155 O   0  0  0  0  0  0  0  0  0  0  0  0
  151.7840   44.5925  143.9006 N   0  0  0  0  0  0  0  0  0  0  0  0
  151.9249   44.4332  145.2256 C   0  0  0  0  0  0  0  0  0  0  0  0
  150.9173   43.8451  145.8876 N   0  0  0  0  0  0  0  0  0  0  0  0
  153.0173   44.8350  145.9165 N   0  0  0  0  0  0  0  0  0  0  0  0
  154.0483   45.4350  145.2854 C   0  0  0  0  0  0  0  0  0  0  0  0
  1  3  2  6  0  0  0
  1 32  1  0  0  0  0
  1  2  1  0  0  0  0
  1  4  1  0  0  0  0
  4  5  1  0  0  0  0
  6  5  1  1  0  0  0
  7  6  1  0  0  0  0
  8  6  1  0  0  0  0
  8 10  1  0  0  0  0
  8  9  1  6  0  0  0
 10 11  1  6  0  0  0
 12 13  1  1  0  0  0
 12  7  1  0  0  0  0
 12 10  1  0  0  0  0
 14 13  1  0  0  0  0
 15 16  1  0  0  0  0
 15 14  2  0  0  0  0
 16 23  2  0  0  0  0
 17 16  1  0  0  0  0
 17 19  1  0  0  0  0
 18 17  2  0  0  0  0
 19 20  2  0  0  0  0
 20 22  1  0  0  0  0
 20 21  1  0  0  0  0
 23 13  1  0  0  0  0
 23 22  1  0  0  0  0
 24 25  2  6  0  0  0
 24  9  1  0  0  0  0
 24 26  1  0  0  0  0
 27 28  1  0  0  0  0
 27 24  1  0  0  0  0
 29 30  1  6  0  0  0
 29 28  1  0  0  0  0
 31 32  1  1  0  0  0
 31 29  1  0  0  0  0
 33 34  1  1  0  0  0
 33 35  1  0  0  0  0
 33 31  1  0  0  0  0
 35 36  1  6  0  0  0
 35 30  1  0  0  0  0
 36 37  1  0  0  0  0
 38 37  2  0  0  0  0
 39 38  1  0  0  0  0
 40 41  2  0  0  0  0
 40 39  1  0  0  0  0
 42 40  1  0  0  0  0
 43 42  2  0  0  0  0
 43 45  1  0  0  0  0
 44 43  1  0  0  0  0
 45 46  1  0  0  0  0
 46 39  2  0  0  0  0
 46 36  1  0  0  0  0
M  END
>  <CHROM.1>
-1.17657541,11.04580034,157.55584677,43.59633197,144.21649059,-2.15419172
0.18272375,-2.10934151

>  <Name>
lig.pdb

>  <RI>
0

>  <Rbt.Current_Directory>
/home/itssahil/PROJECTS/Mol_Feturizer/New_Systems/rnas/4yb0

>  <Rbt.Executable>
rbdock ($Id: //depot/dev/client3/rdock/2013.1/src/exe/rbdock.cxx#4 $)

>  <Rbt.Library>
libRbt.so (2013.1, Build901 2013/11/27)

>  <Rbt.Parameter_File>
/export/apps/rDock/src/rDock_2013.1_src/data/scripts/dock_solv.prm

>  <Rbt.Receptor>
prm/pocket_docking_4.prm

>  <SCORE>
-50.5341

>  <SCORE.INTER>
-50.5642

>  <SCORE.INTER.CONST>
1

>  <SCORE.INTER.POLAR>
0

>  <SCORE.INTER.ROT>
2

>  <SCORE.INTER.SOLV>
29.1139

>  <SCORE.INTER.VDW>
-48.3474

>  <SCORE.INTER.norm>
-1.09922

>  <SCORE.INTRA>
0.0301401

>  <SCORE.INTRA.DIHEDRAL>
0.091954

>  <SCORE.INTRA.DIHEDRAL.0>
4.74153

>  <SCORE.INTRA.POLAR>
0

>  <SCORE.INTRA.POLAR.0>
0

>  <SCORE.INTRA.REPUL>
0

>  <SCORE.INTRA.REPUL.0>
0

>  <SCORE.INTRA.SOLV>
0.113848

>  <SCORE.INTRA.SOLV.lig_0>
-60.4375

>  <SCORE.INTRA.VDW>
-0.0727611

>  <SCORE.INTRA.VDW.0>
-1.83689

>  <SCORE.INTRA.norm>
0.000655219

>  <SCORE.RESTR>
0

>  <SCORE.RESTR.CAVITY>
0

>  <SCORE.RESTR.norm>
0

>  <SCORE.SYSTEM>
0

>  <SCORE.SYSTEM.CONST>
0

>  <SCORE.SYSTEM.DIHEDRAL>
0

>  <SCORE.SYSTEM.SOLV>
0

>  <SCORE.SYSTEM.norm>
0

>  <SCORE.heavy>
46

>  <SCORE.norm>
-1.09857

>  <RMSD>
0.458

$$$$
lig.pdb
 OpenBabel11021811523D
libRbt.so/2013.1/901 2013/11/27
 46 52  0  0  0  0  0  0  0  0999 V2000
  159.6707   46.2768  143.4388 P   0  0  2  0  0  0  0  0  0  0  0  0
  160.3123   47.6132  143.7419 O   0  0  0  0  0  0  0  0  0  0  0  0
  159.1880   46.0615  142.0275 O   0  0  0  0  0  0  0  0  0  0  0  0
  158.4507   45.9735  144.4412 O   0  0  0  0  0  0  0  0  0  0  0  0
  158.2036   46.7872  145.5804 C   0  0  0  0  0  0  0  0  0  0  0  0
  157.2724   46.0669  146.5416 C   0  0  1  0  0  0  0  0  0  0  0  0
  155.9763   46.6320  146.4044 O   0  0  0  0  0  0  0  0  0  0  0  0
  157.1116   44.5703  146.3071 C   0  0  1  0  0  0  0  0  0  0  0  0
  157.8625   43.8515  147.2745 O   0  0  0  0  0  0  0  0  0  0  0  0
  155.6435   44.3272  146.5766 C   0  0  1  0  0  0  0  0  0  0  0  0
  155.4541   44.0192  147.9591 O   0  0  0  0  0  0  0  0  0  0  0  0
  154.9627   45.6414  146.3263 C   0  0  2  0  0  0  0  0  0  0  0  0
  154.4011   45.6452  144.9547 N   0  0  0  0  0  0  0  0  0  0  0  0
  155.0122   46.1287  143.8592 C   0  0  0  0  0  0  0  0  0  0  0  0
  154.2184   45.9915  142.7701 N   0  0  0  0  0  0  0  0  0  0  0  0
  153.0708   45.4096  143.1616 C   0  0  0  0  0  0  0  0  0  0  0  0
  151.8110   44.9790  142.5109 C   0  0  0  0  0  0  0  0  0  0  0  0
  151.6442   45.1511  141.2794 O   0  0  0  0  0  0  0  0  0  0  0  0
  150.8692   44.4085  143.2816 N   0  0  0  0  0  0  0  0  0  0  0  0
  151.0525   44.2274  144.6032 C   0  0  0  0  0  0  0  0  0  0  0  0
  150.0724   43.6436  145.3284 N   0  0  0  0  0  0  0  0  0  0  0  0
  152.1760   44.5967  145.2591 N   0  0  0  0  0  0  0  0  0  0  0  0
  153.2011   45.1827  144.6043 C   0  0  0  0  0  0  0  0  0  0  0  0
  158.1508   42.2568  147.1751 P   0  0  2  0  0  0  0  0  0  0  0  0
  156.8537   41.5347  146.9026 O   0  0  0  0  0  0  0  0  0  0  0  0
  158.9990   41.9073  148.3835 O   0  0  0  0  0  0  0  0  0  0  0  0
  159.0535   42.1509  145.8397 O   0  0  0  0  0  0  0  0  0  0  0  0
  160.4465   42.4562  145.8914 C   0  0  0  0  0  0  0  0  0  0  0  0
  161.0487   42.7593  144.5158 C   0  0  1  0  0  0  0  0  0  0  0  0
  161.1702   41.5433  143.7747 O   0  0  0  0  0  0  0  0  0  0  0  0
  160.2381   43.7238  143.6529 C   0  0  1  0  0  0  0  0  0  0  0  0
  160.6860   45.0725  143.7819 O   0  0  0  0  0  0  0  0  0  0  0  0
  160.4801   43.1871  142.2545 C   0  0  1  0  0  0  0  0  0  0  0  0
  161.6728   43.7443  141.6951 O   0  0  0  0  0  0  0  0  0  0  0  0
  160.7117   41.7007  142.4292 C   0  0  2  0  0  0  0  0  0  0  0  0
  159.4254   40.9769  142.2754 N   0  0  0  0  0  0  0  0  0  0  0  0
  158.9151   40.0863  143.1488 C   0  0  0  0  0  0  0  0  0  0  0  0
  157.7116   39.6015  142.7345 N   0  0  0  0  0  0  0  0  0  0  0  0
  157.4272   40.1961  141.5650 C   0  0  0  0  0  0  0  0  0  0  0  0
  156.3221   40.1371  140.5745 C   0  0  0  0  0  0  0  0  0  0  0  0
  155.3175   39.4110  140.7351 O   0  0  0  0  0  0  0  0  0  0  0  0
  156.4203   40.9158  139.4958 N   0  0  0  0  0  0  0  0  0  0  0  0
  157.4750   41.7171  139.2805 C   0  0  0  0  0  0  0  0  0  0  0  0
  157.4767   42.4470  138.1551 N   0  0  0  0  0  0  0  0  0  0  0  0
  158.5237   41.8196  140.1303 N   0  0  0  0  0  0  0  0  0  0  0  0
  158.5593   41.0969  141.2695 C   0  0  0  0  0  0  0  0  0  0  0  0
  1  3  2  6  0  0  0
  1 32  1  0  0  0  0
  1  2  1  0  0  0  0
  1  4  1  0  0  0  0
  4  5  1  0  0  0  0
  6  5  1  6  0  0  0
  7  6  1  0  0  0  0
  8  6  1  0  0  0  0
  8 10  1  0  0  0  0
  8  9  1  1  0  0  0
 10 11  1  1  0  0  0
 12 13  1  6  0  0  0
 12  7  1  0  0  0  0
 12 10  1  0  0  0  0
 14 13  1  0  0  0  0
 15 16  1  0  0  0  0
 15 14  2  0  0  0  0
 16 23  2  0  0  0  0
 17 16  1  0  0  0  0
 17 19  1  0  0  0  0
 18 17  2  0  0  0  0
 19 20  2  0  0  0  0
 20 22  1  0  0  0  0
 20 21  1  0  0  0  0
 23 13  1  0  0  0  0
 23 22  1  0  0  0  0
 24 25  2  6  0  0  0
 24  9  1  0  0  0  0
 24 26  1  0  0  0  0
 27 28  1  0  0  0  0
 27 24  1  0  0  0  0
 29 30  1  6  0  0  0
 29 28  1  0  0  0  0
 31 32  1  6  0  0  0
 31 29  1  0  0  0  0
 33 34  1  1  0  0  0
 33 35  1  0  0  0  0
 33 31  1  0  0  0  0
 35 36  1  1  0  0  0
 35 30  1  0  0  0  0
 36 37  1  0  0  0  0
 38 37  2  0  0  0  0
 39 38  1  0  0  0  0
 40 41  2  0  0  0  0
 40 39  1  0  0  0  0
 42 40  1  0  0  0  0
 43 42  2  0  0  0  0
 43 45  1  0  0  0  0
 44 43  1  0  0  0  0
 45 46  1  0  0  0  0
 46 39  2  0  0  0  0
 46 36  1  0  0  0  0
M  END
>  <CHROM.1>
21.35655900,-13.20764827,157.14559254,43.61918586,143.91552726,-0.33709434
-0.16329712,1.02024918

>  <Name>
lig.pdb

>  <RI>
0

>  <Rbt.Current_Directory>
/home/itssahil/PROJECTS/Mol_Feturizer/New_Systems/rnas/4yb0

>  <Rbt.Executable>
rbdock ($Id: //depot/dev/client3/rdock/2013.1/src/exe/rbdock.cxx#4 $)

>  <Rbt.Library>
libRbt.so (2013.1, Build901 2013/11/27)

>  <Rbt.Parameter_File>
/export/apps/rDock/src/rDock_2013.1_src/data/scripts/dock_solv.prm

>  <Rbt.Receptor>
prm/pocket_docking_7.prm

>  <SCORE>
-53.5841

>  <SCORE.INTER>
-53.4896

>  <SCORE.INTER.CONST>
1

>  <SCORE.INTER.POLAR>
0

>  <SCORE.INTER.ROT>
2

>  <SCORE.INTER.SOLV>
30.9556

>  <SCORE.INTER.VDW>
-50.9116

>  <SCORE.INTER.norm>
-1.16282

>  <SCORE.INTRA>
-0.0949326

>  <SCORE.INTRA.DIHEDRAL>
-0.0226073

>  <SCORE.INTRA.DIHEDRAL.0>
4.74153

>  <SCORE.INTRA.POLAR>
0

>  <SCORE.INTRA.POLAR.0>
0

>  <SCORE.INTRA.REPUL>
0

>  <SCORE.INTRA.REPUL.0>
0

>  <SCORE.INTRA.SOLV>
-0.00415809

>  <SCORE.INTRA.SOLV.lig_0>
-60.4375

>  <SCORE.INTRA.VDW>
-0.0815499

>  <SCORE.INTRA.VDW.0>
-1.83689

>  <SCORE.INTRA.norm>
-0.00206375

>  <SCORE.RESTR>
0.000420889

>  <SCORE.RESTR.CAVITY>
0.000420889

>  <SCORE.RESTR.norm>
9.14976e-06

>  <SCORE.SYSTEM>
0

>  <SCORE.SYSTEM.CONST>
0

>  <SCORE.SYSTEM.DIHEDRAL>
0

>  <SCORE.SYSTEM.SOLV>
0

>  <SCORE.SYSTEM.norm>
0

>  <SCORE.heavy>
46

>  <SCORE.norm>
-1.16487

>  <RMSD>
0.458

$$$$
lig.pdb
 OpenBabel11021811523D
libRbt.so/2013.1/901 2013/11/27
 46 52  0  0  0  0  0  0  0  0999 V2000
  159.6751   46.2147  143.4565 P   0  0  2  0  0  0  0  0  0  0  0  0
  160.3215   47.5511  143.7492 O   0  0  0  0  0  0  0  0  0  0  0  0
  159.1902   45.9907  142.0473 O   0  0  0  0  0  0  0  0  0  0  0  0
  158.4552   45.9227  144.4623 O   0  0  0  0  0  0  0  0  0  0  0  0
  158.2120   46.7455  145.5959 C   0  0  0  0  0  0  0  0  0  0  0  0
  157.2795   46.0354  146.5633 C   0  0  1  0  0  0  0  0  0  0  0  0
  155.9852   46.6037  146.4234 O   0  0  0  0  0  0  0  0  0  0  0  0
  157.1134   44.5376  146.3399 C   0  0  1  0  0  0  0  0  0  0  0  0
  157.8630   43.8234  147.3117 O   0  0  0  0  0  0  0  0  0  0  0  0
  155.6449   44.3014  146.6127 C   0  0  1  0  0  0  0  0  0  0  0  0
  155.4560   44.0041  147.9976 O   0  0  0  0  0  0  0  0  0  0  0  0
  154.9682   45.6161  146.3535 C   0  0  2  0  0  0  0  0  0  0  0  0
  154.4051   45.6117  144.9825 N   0  0  0  0  0  0  0  0  0  0  0  0
  155.0224   46.0722  143.8806 C   0  0  0  0  0  0  0  0  0  0  0  0
  154.2252   45.9340  142.7940 N   0  0  0  0  0  0  0  0  0  0  0  0
  153.0692   45.3748  143.1938 C   0  0  0  0  0  0  0  0  0  0  0  0
  151.8021   44.9559  142.5496 C   0  0  0  0  0  0  0  0  0  0  0  0
  151.6366   45.1155  141.3163 O   0  0  0  0  0  0  0  0  0  0  0  0
  150.8525   44.4097  143.3283 N   0  0  0  0  0  0  0  0  0  0  0  0
  151.0345   44.2420  144.6518 C   0  0  0  0  0  0  0  0  0  0  0  0
  150.0462   43.6825  145.3850 N   0  0  0  0  0  0  0  0  0  0  0  0
  152.1643   44.6018  145.3020 N   0  0  0  0  0  0  0  0  0  0  0  0
  153.1976   45.1637  144.6391 C   0  0  0  0  0  0  0  0  0  0  0  0
  158.1459   42.2270  147.2236 P   0  0  2  0  0  0  0  0  0  0  0  0
  156.8460   41.5073  146.9577 O   0  0  0  0  0  0  0  0  0  0  0  0
  158.9942   41.8835  148.4337 O   0  0  0  0  0  0  0  0  0  0  0  0
  159.0467   42.1084  145.8880 O   0  0  0  0  0  0  0  0  0  0  0  0
  160.4408   42.4094  145.9360 C   0  0  0  0  0  0  0  0  0  0  0  0
  161.0426   42.7005  144.5577 C   0  0  1  0  0  0  0  0  0  0  0  0
  161.1591   41.4788  143.8252 O   0  0  0  0  0  0  0  0  0  0  0  0
  160.2342   43.6614  143.6886 C   0  0  1  0  0  0  0  0  0  0  0  0
  160.6868   45.0094  143.8073 O   0  0  0  0  0  0  0  0  0  0  0  0
  160.4730   43.1137  142.2939 C   0  0  1  0  0  0  0  0  0  0  0  0
  161.6668   43.6628  141.7292 O   0  0  0  0  0  0  0  0  0  0  0  0
  160.6998   41.6278  142.4791 C   0  0  2  0  0  0  0  0  0  0  0  0
  159.4109   40.9072  142.3320 N   0  0  0  0  0  0  0  0  0  0  0  0
  158.8830   40.0495  143.2276 C   0  0  0  0  0  0  0  0  0  0  0  0
  157.6820   39.5585  142.8132 N   0  0  0  0  0  0  0  0  0  0  0  0
  157.4173   40.1155  141.6207 C   0  0  0  0  0  0  0  0  0  0  0  0
  156.3253   40.0302  140.6177 C   0  0  0  0  0  0  0  0  0  0  0  0
  155.3138   39.3161  140.7887 O   0  0  0  0  0  0  0  0  0  0  0  0
  156.4431   40.7718  139.5151 N   0  0  0  0  0  0  0  0  0  0  0  0
  157.5059   41.5590  139.2878 C   0  0  0  0  0  0  0  0  0  0  0  0
  157.5276   42.2509  138.1388 N   0  0  0  0  0  0  0  0  0  0  0  0
  158.5437   41.6834  140.1479 N   0  0  0  0  0  0  0  0  0  0  0  0
  158.5592   40.9989  141.3109 C   0  0  0  0  0  0  0  0  0  0  0  0
  1  3  2  6  0  0  0
  1 32  1  0  0  0  0
  1  2  1  0  0  0  0
  1  4  1  0  0  0  0
  4  5  1  0  0  0  0
  6  5  1  6  0  0  0
  7  6  1  0  0  0  0
  8  6  1  0  0  0  0
  8 10  1  0  0  0  0
  8  9  1  1  0  0  0
 10 11  1  1  0  0  0
 12 13  1  6  0  0  0
 12  7  1  0  0  0  0
 12 10  1  0  0  0  0
 14 13  1  0  0  0  0
 15 16  1  0  0  0  0
 15 14  2  0  0  0  0
 16 23  2  0  0  0  0
 17 16  1  0  0  0  0
 17 19  1  0  0  0  0
 18 17  2  0  0  0  0
 19 20  2  0  0  0  0
 20 22  1  0  0  0  0
 20 21  1  0  0  0  0
 23 13  1  0  0  0  0
 23 22  1  0  0  0  0
 24 25  2  6  0  0  0
 24  9  1  0  0  0  0
 24 26  1  0  0  0  0
 27 28  1  0  0  0  0
 27 24  1  0  0  0  0
 29 30  1  6  0  0  0
 29 28  1  0  0  0  0
 31 32  1  6  0  0  0
 31 29  1  0  0  0  0
 33 34  1  1  0  0  0
 33 35  1  0  0  0  0
 33 31  1  0  0  0  0
 35 36  1  1  0  0  0
 35 30  1  0  0  0  0
 36 37  1  0  0  0  0
 38 37  2  0  0  0  0
 39 38  1  0  0  0  0
 40 41  2  0  0  0  0
 40 39  1  0  0  0  0
 42 40  1  0  0  0  0
 43 42  2  0  0  0  0
 43 45  1  0  0  0  0
 44 43  1  0  0  0  0
 45 46  1  0  0  0  0
 46 39  2  0  0  0  0
 46 36  1  0  0  0  0
M  END
>  <CHROM.1>
22.11426619,-11.48468254,157.14446838,43.56587570,143.95144784,-0.35702135
-0.16707665,1.01032887

>  <Name>
lig.pdb

>  <RI>
0

>  <Rbt.Current_Directory>
/home/itssahil/PROJECTS/Mol_Feturizer/New_Systems/rnas/4yb0

>  <Rbt.Executable>
rbdock ($Id: //depot/dev/client3/rdock/2013.1/src/exe/rbdock.cxx#4 $)

>  <Rbt.Library>
libRbt.so (2013.1, Build901 2013/11/27)

>  <Rbt.Parameter_File>
/export/apps/rDock/src/rDock_2013.1_src/data/scripts/dock_solv.prm

>  <Rbt.Receptor>
prm/pocket_docking_2.prm

>  <SCORE>
-53.6168

>  <SCORE.INTER>
-53.5077

>  <SCORE.INTER.CONST>
1

>  <SCORE.INTER.POLAR>
0

>  <SCORE.INTER.ROT>
2

>  <SCORE.INTER.SOLV>
31.084

>  <SCORE.INTER.VDW>
-50.9665

>  <SCORE.INTER.norm>
-1.16321

>  <SCORE.INTRA>
-0.109053

>  <SCORE.INTRA.DIHEDRAL>
-0.0190952

>  <SCORE.INTRA.DIHEDRAL.0>
4.74153

>  <SCORE.INTRA.POLAR>
0

>  <SCORE.INTRA.POLAR.0>
0

>  <SCORE.INTRA.REPUL>
0

>  <SCORE.INTRA.REPUL.0>
0

>  <SCORE.INTRA.SOLV>
0.00200899

>  <SCORE.INTRA.SOLV.lig_0>
-60.4375

>  <SCORE.INTRA.VDW>
-0.10051

>  <SCORE.INTRA.VDW.0>
-1.83689

>  <SCORE.INTRA.norm>
-0.00237073

>  <SCORE.RESTR>
0

>  <SCORE.RESTR.CAVITY>
0

>  <SCORE.RESTR.norm>
0

>  <SCORE.SYSTEM>
0

>  <SCORE.SYSTEM.CONST>
0

>  <SCORE.SYSTEM.DIHEDRAL>
0

>  <SCORE.SYSTEM.SOLV>
0

>  <SCORE.SYSTEM.norm>
0

>  <SCORE.heavy>
46

>  <SCORE.norm>
-1.16558

>  <RMSD>
0.459

$$$$
lig.pdb
 OpenBabel11021811523D
libRbt.so/2013.1/901 2013/11/27
 46 52  0  0  0  0  0  0  0  0999 V2000
  158.6295   42.1345  147.5063 P   0  0  2  0  0  0  0  0  0  0  0  0
  159.5339   41.4227  148.4887 O   0  0  0  0  0  0  0  0  0  0  0  0
  157.2370   41.5815  147.3439 O   0  0  0  0  0  0  0  0  0  0  0  0
  159.3073   42.2304  146.0515 O   0  0  0  0  0  0  0  0  0  0  0  0
  160.6676   41.8760  145.8394 C   0  0  0  0  0  0  0  0  0  0  0  0
  161.1457   42.4241  144.5049 C   0  0  1  0  0  0  0  0  0  0  0  0
  161.1795   41.3503  143.5755 O   0  0  0  0  0  0  0  0  0  0  0  0
  160.2662   43.5001  143.8807 C   0  0  1  0  0  0  0  0  0  0  0  0
  160.8695   44.7732  144.0589 O   0  0  0  0  0  0  0  0  0  0  0  0
  160.2968   43.1682  142.4057 C   0  0  1  0  0  0  0  0  0  0  0  0
  161.3858   43.8521  141.7825 O   0  0  0  0  0  0  0  0  0  0  0  0
  160.6023   41.7006  142.3270 C   0  0  2  0  0  0  0  0  0  0  0  0
  159.3361   40.9479  142.1623 N   0  0  0  0  0  0  0  0  0  0  0  0
  158.8389   40.0515  143.0321 C   0  0  0  0  0  0  0  0  0  0  0  0
  157.6737   39.5357  142.5721 N   0  0  0  0  0  0  0  0  0  0  0  0
  157.4071   40.1046  141.3829 C   0  0  0  0  0  0  0  0  0  0  0  0
  156.3338   40.0088  140.3656 C   0  0  0  0  0  0  0  0  0  0  0  0
  155.3687   39.2255  140.5361 O   0  0  0  0  0  0  0  0  0  0  0  0
  156.4363   40.7805  139.2700 N   0  0  0  0  0  0  0  0  0  0  0  0
  157.4749   41.6185  139.0911 C   0  0  0  0  0  0  0  0  0  0  0  0
  157.5235   42.3747  137.9716 N   0  0  0  0  0  0  0  0  0  0  0  0
  158.4866   41.7544  139.9781 N   0  0  0  0  0  0  0  0  0  0  0  0
  158.5083   41.0367  141.1215 C   0  0  0  0  0  0  0  0  0  0  0  0
  160.0997   46.1732  143.7702 P   0  0  2  0  0  0  0  0  0  0  0  0
  159.4464   46.1085  142.4111 O   0  0  0  0  0  0  0  0  0  0  0  0
  161.0881   47.2734  144.1089 O   0  0  0  0  0  0  0  0  0  0  0  0
  158.9213   46.1544  144.8750 O   0  0  0  0  0  0  0  0  0  0  0  0
  159.2004   46.5217  146.2254 C   0  0  0  0  0  0  0  0  0  0  0  0
  158.1448   46.0220  147.2166 C   0  0  1  0  0  0  0  0  0  0  0  0
  156.9551   46.8009  147.0726 O   0  0  0  0  0  0  0  0  0  0  0  0
  157.7388   44.5597  147.0471 C   0  0  1  0  0  0  0  0  0  0  0  0
  158.4790   43.6900  147.9026 O   0  0  0  0  0  0  0  0  0  0  0  0
  156.2679   44.5880  147.4182 C   0  0  1  0  0  0  0  0  0  0  0  0
  156.0964   44.4354  148.8300 O   0  0  0  0  0  0  0  0  0  0  0  0
  155.7871   45.9759  147.0496 C   0  0  2  0  0  0  0  0  0  0  0  0
  155.2401   45.9613  145.6702 N   0  0  0  0  0  0  0  0  0  0  0  0
  155.8562   46.4485  144.5750 C   0  0  0  0  0  0  0  0  0  0  0  0
  155.1052   46.2767  143.4517 N   0  0  0  0  0  0  0  0  0  0  0  0
  153.9744   45.6557  143.8231 C   0  0  0  0  0  0  0  0  0  0  0  0
  152.7403   45.1829  143.1456 C   0  0  0  0  0  0  0  0  0  0  0  0
  152.5656   45.3018  141.9137 O   0  0  0  0  0  0  0  0  0  0  0  0
  151.8121   44.5919  143.8998 N   0  0  0  0  0  0  0  0  0  0  0  0
  151.9550   44.4347  145.2249 C   0  0  0  0  0  0  0  0  0  0  0  0
  150.9525   43.8390  145.8878 N   0  0  0  0  0  0  0  0  0  0  0  0
  153.0444   44.8460  145.9149 N   0  0  0  0  0  0  0  0  0  0  0  0
  154.0702   45.4539  145.2827 C   0  0  0  0  0  0  0  0  0  0  0  0
  1  3  2  6  0  0  0
  1 32  1  0  0  0  0
  1  2  1  0  0  0  0
  1  4  1  0  0  0  0
  4  5  1  0  0  0  0
  6  5  1  1  0  0  0
  7  6  1  0  0  0  0
  8  6  1  0  0  0  0
  8 10  1  0  0  0  0
  8  9  1  6  0  0  0
 10 11  1  6  0  0  0
 12 13  1  1  0  0  0
 12  7  1  0  0  0  0
 12 10  1  0  0  0  0
 14 13  1  0  0  0  0
 15 16  1  0  0  0  0
 15 14  2  0  0  0  0
 16 23  2  0  0  0  0
 17 16  1  0  0  0  0
 17 19  1  0  0  0  0
 18 17  2  0  0  0  0
 19 20  2  0  0  0  0
 20 22  1  0  0  0  0
 20 21  1  0  0  0  0
 23 13  1  0  0  0  0
 23 22  1  0  0  0  0
 24 25  2  6  0  0  0
 24  9  1  0  0  0  0
 24 26  1  0  0  0  0
 27 28  1  0  0  0  0
 27 24  1  0  0  0  0
 29 30  1  6  0  0  0
 29 28  1  0  0  0  0
 31 32  1  1  0  0  0
 31 29  1  0  0  0  0
 33 34  1  1  0  0  0
 33 35  1  0  0  0  0
 33 31  1  0  0  0  0
 35 36  1  6  0  0  0
 35 30  1  0  0  0  0
 36 37  1  0  0  0  0
 38 37  2  0  0  0  0
 39 38  1  0  0  0  0
 40 41  2  0  0  0  0
 40 39  1  0  0  0  0
 42 40  1  0  0  0  0
 43 42  2  0  0  0  0
 43 45  1  0  0  0  0
 44 43  1  0  0  0  0
 45 46  1  0  0  0  0
 46 39  2  0  0  0  0
 46 36  1  0  0  0  0
M  END
>  <CHROM.1>
-1.90439180,10.40856200,157.56759583,43.61268019,144.22453152,-2.15222613
0.18262048,-2.11379559

>  <Name>
lig.pdb

>  <RI>
0

>  <Rbt.Current_Directory>
/home/itssahil/PROJECTS/Mol_Feturizer/New_Systems/rnas/4yb0

>  <Rbt.Executable>
rbdock ($Id: //depot/dev/client3/rdock/2013.1/src/exe/rbdock.cxx#4 $)

>  <Rbt.Library>
libRbt.so (2013.1, Build901 2013/11/27)

>  <Rbt.Parameter_File>
/export/apps/rDock/src/rDock_2013.1_src/data/scripts/dock_solv.prm

>  <Rbt.Receptor>
prm/pocket_docking_4.prm

>  <SCORE>
-50.5194

>  <SCORE.INTER>
-50.559

>  <SCORE.INTER.CONST>
1

>  <SCORE.INTER.POLAR>
0

>  <SCORE.INTER.ROT>
2

>  <SCORE.INTER.SOLV>
28.8806

>  <SCORE.INTER.VDW>
-48.2662

>  <SCORE.INTER.norm>
-1.09911

>  <SCORE.INTRA>
0.0395804

>  <SCORE.INTRA.DIHEDRAL>
0.0919716

>  <SCORE.INTRA.DIHEDRAL.0>
4.74153

>  <SCORE.INTRA.POLAR>
0

>  <SCORE.INTRA.POLAR.0>
0

>  <SCORE.INTRA.REPUL>
0

>  <SCORE.INTRA.REPUL.0>
0

>  <SCORE.INTRA.SOLV>
0.115562

>  <SCORE.INTRA.SOLV.lig_0>
-60.4375

>  <SCORE.INTRA.VDW>
-0.0641865

>  <SCORE.INTRA.VDW.0>
-1.83689

>  <SCORE.INTRA.norm>
0.000860443

>  <SCORE.RESTR>
0

>  <SCORE.RESTR.CAVITY>
0

>  <SCORE.RESTR.norm>
0

>  <SCORE.SYSTEM>
0

>  <SCORE.SYSTEM.CONST>
0

>  <SCORE.SYSTEM.DIHEDRAL>
0

>  <SCORE.SYSTEM.SOLV>
0

>  <SCORE.SYSTEM.norm>
0

>  <SCORE.heavy>
46

>  <SCORE.norm>
-1.09825

>  <RMSD>
0.459

$$$$
lig.pdb
 OpenBabel11021811523D
libRbt.so/2013.1/901 2013/11/27
 46 52  0  0  0  0  0  0  0  0999 V2000
  159.6859   46.2516  143.5339 P   0  0  2  0  0  0  0  0  0  0  0  0
  160.3336   47.5807  143.8558 O   0  0  0  0  0  0  0  0  0  0  0  0
  159.2257   46.0486  142.1133 O   0  0  0  0  0  0  0  0  0  0  0  0
  158.4465   45.9528  144.5135 O   0  0  0  0  0  0  0  0  0  0  0  0
  158.1868   46.7620  145.6532 C   0  0  0  0  0  0  0  0  0  0  0  0
  157.2333   46.0442  146.5941 C   0  0  1  0  0  0  0  0  0  0  0  0
  155.9446   46.6210  146.4382 O   0  0  0  0  0  0  0  0  0  0  0  0
  157.0639   44.5503  146.3480 C   0  0  1  0  0  0  0  0  0  0  0  0
  157.7921   43.8195  147.3238 O   0  0  0  0  0  0  0  0  0  0  0  0
  155.5894   44.3182  146.5910 C   0  0  1  0  0  0  0  0  0  0  0  0
  155.3738   44.0038  147.9682 O   0  0  0  0  0  0  0  0  0  0  0  0
  154.9241   45.6397  146.3369 C   0  0  2  0  0  0  0  0  0  0  0  0
  154.3860   45.6562  144.9559 N   0  0  0  0  0  0  0  0  0  0  0  0
  155.0116   46.1589  143.8774 C   0  0  0  0  0  0  0  0  0  0  0  0
  154.2378   46.0289  142.7731 N   0  0  0  0  0  0  0  0  0  0  0  0
  153.0889   45.4322  143.1374 C   0  0  0  0  0  0  0  0  0  0  0  0
  151.8442   44.9992  142.4596 C   0  0  0  0  0  0  0  0  0  0  0  0
  151.6971   45.1857  141.2277 O   0  0  0  0  0  0  0  0  0  0  0  0
  150.8944   44.4109  143.2067 N   0  0  0  0  0  0  0  0  0  0  0  0
  151.0566   44.2144  144.5289 C   0  0  0  0  0  0  0  0  0  0  0  0
  150.0694   43.6130  145.2295 N   0  0  0  0  0  0  0  0  0  0  0  0
  152.1654   44.5849  145.2087 N   0  0  0  0  0  0  0  0  0  0  0  0
  153.1964   45.1880  144.5791 C   0  0  0  0  0  0  0  0  0  0  0  0
  158.0685   42.2230  147.2198 P   0  0  2  0  0  0  0  0  0  0  0  0
  156.7702   41.5136  146.9209 O   0  0  0  0  0  0  0  0  0  0  0  0
  158.8929   41.8593  148.4404 O   0  0  0  0  0  0  0  0  0  0  0  0
  158.9930   42.1172  145.8993 O   0  0  0  0  0  0  0  0  0  0  0  0
  160.3875   42.4103  145.9766 C   0  0  0  0  0  0  0  0  0  0  0  0
  161.0156   42.7163  144.6133 C   0  0  1  0  0  0  0  0  0  0  0  0
  161.1395   41.5036  143.8671 O   0  0  0  0  0  0  0  0  0  0  0  0
  160.2280   43.6926  143.7425 C   0  0  1  0  0  0  0  0  0  0  0  0
  160.6851   45.0366  143.8871 O   0  0  0  0  0  0  0  0  0  0  0  0
  160.4894   43.1620  142.3453 C   0  0  1  0  0  0  0  0  0  0  0  0
  161.6961   43.7122  141.8096 O   0  0  0  0  0  0  0  0  0  0  0  0
  160.7055   41.6727  142.5150 C   0  0  2  0  0  0  0  0  0  0  0  0
  159.4159   40.9608  142.3349 N   0  0  0  0  0  0  0  0  0  0  0  0
  158.8974   40.0476  143.1798 C   0  0  0  0  0  0  0  0  0  0  0  0
  157.6929   39.5819  142.7467 N   0  0  0  0  0  0  0  0  0  0  0  0
  157.4163   40.2123  141.5942 C   0  0  0  0  0  0  0  0  0  0  0  0
  156.3149   40.1885  140.5982 C   0  0  0  0  0  0  0  0  0  0  0  0
  155.3059   39.4636  140.7334 O   0  0  0  0  0  0  0  0  0  0  0  0
  156.4216   40.9982  139.5433 N   0  0  0  0  0  0  0  0  0  0  0  0
  157.4815   41.7997  139.3558 C   0  0  0  0  0  0  0  0  0  0  0  0
  157.4916   42.5624  138.2525 N   0  0  0  0  0  0  0  0  0  0  0  0
  158.5273   41.8714  140.2123 N   0  0  0  0  0  0  0  0  0  0  0  0
  158.5545   41.1152  141.3297 C   0  0  0  0  0  0  0  0  0  0  0  0
  1  3  2  6  0  0  0
  1 32  1  0  0  0  0
  1  2  1  0  0  0  0
  1  4  1  0  0  0  0
  4  5  1  0  0  0  0
  6  5  1  6  0  0  0
  7  6  1  0  0  0  0
  8  6  1  0  0  0  0
  8 10  1  0  0  0  0
  8  9  1  1  0  0  0
 10 11  1  1  0  0  0
 12 13  1  6  0  0  0
 12  7  1  0  0  0  0
 12 10  1  0  0  0  0
 14 13  1  0  0  0  0
 15 16  1  0  0  0  0
 15 14  2  0  0  0  0
 16 23  2  0  0  0  0
 17 16  1  0  0  0  0
 17 19  1  0  0  0  0
 18 17  2  0  0  0  0
 19 20  2  0  0  0  0
 20 22  1  0  0  0  0
 20 21  1  0  0  0  0
 23 13  1  0  0  0  0
 23 22  1  0  0  0  0
 24 25  2  6  0  0  0
 24  9  1  0  0  0  0
 24 26  1  0  0  0  0
 27 28  1  0  0  0  0
 27 24  1  0  0  0  0
 29 30  1  6  0  0  0
 29 28  1  0  0  0  0
 31 32  1  6  0  0  0
 31 29  1  0  0  0  0
 33 34  1  1  0  0  0
 33 35  1  0  0  0  0
 33 31  1  0  0  0  0
 35 36  1  1  0  0  0
 35 30  1  0  0  0  0
 36 37  1  0  0  0  0
 38 37  2  0  0  0  0
 39 38  1  0  0  0  0
 40 41  2  0  0  0  0
 40 39  1  0  0  0  0
 42 40  1  0  0  0  0
 43 42  2  0  0  0  0
 43 45  1  0  0  0  0
 44 43  1  0  0  0  0
 45 46  1  0  0  0  0
 46 39  2  0  0  0  0
 46 36  1  0  0  0  0
M  END
>  <CHROM.1>
20.29864061,-14.76706235,157.12906715,43.61376149,143.95498877,-0.31041658
-0.17671536,1.02900908

>  <Name>
lig.pdb

>  <RI>
0

>  <Rbt.Current_Directory>
/home/itssahil/PROJECTS/Mol_Feturizer/New_Systems/rnas/4yb0

>  <Rbt.Executable>
rbdock ($Id: //depot/dev/client3/rdock/2013.1/src/exe/rbdock.cxx#4 $)

>  <Rbt.Library>
libRbt.so (2013.1, Build901 2013/11/27)

>  <Rbt.Parameter_File>
/export/apps/rDock/src/rDock_2013.1_src/data/scripts/dock_solv.prm

>  <Rbt.Receptor>
prm/pocket_docking_5.prm

>  <SCORE>
-53.5598

>  <SCORE.INTER>
-53.4835

>  <SCORE.INTER.CONST>
1

>  <SCORE.INTER.POLAR>
0

>  <SCORE.INTER.ROT>
2

>  <SCORE.INTER.SOLV>
30.7505

>  <SCORE.INTER.VDW>
-50.8392

>  <SCORE.INTER.norm>
-1.16269

>  <SCORE.INTRA>
-0.0780001

>  <SCORE.INTRA.DIHEDRAL>
-0.0250424

>  <SCORE.INTRA.DIHEDRAL.0>
4.74153

>  <SCORE.INTRA.POLAR>
0

>  <SCORE.INTRA.POLAR.0>
0

>  <SCORE.INTRA.REPUL>
0

>  <SCORE.INTRA.REPUL.0>
0

>  <SCORE.INTRA.SOLV>
-0.0101809

>  <SCORE.INTRA.SOLV.lig_0>
-60.4375

>  <SCORE.INTRA.VDW>
-0.0603884

>  <SCORE.INTRA.VDW.0>
-1.83689

>  <SCORE.INTRA.norm>
-0.00169565

>  <SCORE.RESTR>
0.00168653

>  <SCORE.RESTR.CAVITY>
0.00168653

>  <SCORE.RESTR.norm>
3.66638e-05

>  <SCORE.SYSTEM>
0

>  <SCORE.SYSTEM.CONST>
0

>  <SCORE.SYSTEM.DIHEDRAL>
0

>  <SCORE.SYSTEM.SOLV>
0

>  <SCORE.SYSTEM.norm>
0

>  <SCORE.heavy>
46

>  <SCORE.norm>
-1.16434

>  <RMSD>
0.459

$$$$
lig.pdb
 OpenBabel11021811523D
libRbt.so/2013.1/901 2013/11/27
 46 52  0  0  0  0  0  0  0  0999 V2000
  159.6656   46.2729  143.4930 P   0  0  2  0  0  0  0  0  0  0  0  0
  160.3060   47.6081  143.8043 O   0  0  0  0  0  0  0  0  0  0  0  0
  159.1961   46.0605  142.0768 O   0  0  0  0  0  0  0  0  0  0  0  0
  158.4360   45.9694  144.4833 O   0  0  0  0  0  0  0  0  0  0  0  0
  158.1790   46.7815  145.6215 C   0  0  0  0  0  0  0  0  0  0  0  0
  157.2380   46.0608  146.5727 C   0  0  1  0  0  0  0  0  0  0  0  0
  155.9439   46.6276  146.4242 O   0  0  0  0  0  0  0  0  0  0  0  0
  157.0777   44.5647  146.3343 C   0  0  1  0  0  0  0  0  0  0  0  0
  157.8187   43.8435  147.3076 O   0  0  0  0  0  0  0  0  0  0  0  0
  155.6069   44.3229  146.5896 C   0  0  1  0  0  0  0  0  0  0  0  0
  155.4041   44.0129  147.9697 O   0  0  0  0  0  0  0  0  0  0  0  0
  154.9300   45.6383  146.3349 C   0  0  2  0  0  0  0  0  0  0  0  0
  154.3813   45.6449  144.9581 N   0  0  0  0  0  0  0  0  0  0  0  0
  154.9970   46.1432  143.8718 C   0  0  0  0  0  0  0  0  0  0  0  0
  154.2151   46.0042  142.7742 N   0  0  0  0  0  0  0  0  0  0  0  0
  153.0709   45.4061  143.1509 C   0  0  0  0  0  0  0  0  0  0  0  0
  151.8225   44.9653  142.4853 C   0  0  0  0  0  0  0  0  0  0  0  0
  151.6653   45.1439  141.2535 O   0  0  0  0  0  0  0  0  0  0  0  0
  150.8802   44.3785  143.2432 N   0  0  0  0  0  0  0  0  0  0  0  0
  151.0532   44.1905  144.5652 C   0  0  0  0  0  0  0  0  0  0  0  0
  150.0732   43.5902  145.2770 N   0  0  0  0  0  0  0  0  0  0  0  0
  152.1660   44.5684  145.2343 N   0  0  0  0  0  0  0  0  0  0  0  0
  153.1902   45.1708  144.5932 C   0  0  0  0  0  0  0  0  0  0  0  0
  158.1060   42.2486  147.2082 P   0  0  2  0  0  0  0  0  0  0  0  0
  156.8107   41.5285  146.9224 O   0  0  0  0  0  0  0  0  0  0  0  0
  158.9424   41.8962  148.4241 O   0  0  0  0  0  0  0  0  0  0  0  0
  159.0211   42.1439  145.8812 O   0  0  0  0  0  0  0  0  0  0  0  0
  160.4140   42.4474  145.9465 C   0  0  0  0  0  0  0  0  0  0  0  0
  161.0295   42.7521  144.5772 C   0  0  1  0  0  0  0  0  0  0  0  0
  161.1565   41.5372  143.8353 O   0  0  0  0  0  0  0  0  0  0  0  0
  160.2281   43.7189  143.7083 C   0  0  1  0  0  0  0  0  0  0  0  0
  160.6764   45.0668  143.8437 O   0  0  0  0  0  0  0  0  0  0  0  0
  160.4827   43.1842  142.3114 C   0  0  1  0  0  0  0  0  0  0  0  0
  161.6812   43.7409  141.7641 O   0  0  0  0  0  0  0  0  0  0  0  0
  160.7110   41.6972  142.4858 C   0  0  2  0  0  0  0  0  0  0  0  0
  159.4254   40.9752  142.3187 N   0  0  0  0  0  0  0  0  0  0  0  0
  158.9271   40.0511  143.1638 C   0  0  0  0  0  0  0  0  0  0  0  0
  157.7207   39.5778  142.7443 N   0  0  0  0  0  0  0  0  0  0  0  0
  157.4221   40.2143  141.6007 C   0  0  0  0  0  0  0  0  0  0  0  0
  156.3069   40.1882  140.6203 C   0  0  0  0  0  0  0  0  0  0  0  0
  155.3063   39.4532  140.7644 O   0  0  0  0  0  0  0  0  0  0  0  0
  156.3912   41.0067  139.5703 N   0  0  0  0  0  0  0  0  0  0  0  0
  157.4412   41.8190  139.3739 C   0  0  0  0  0  0  0  0  0  0  0  0
  157.4287   42.5901  138.2764 N   0  0  0  0  0  0  0  0  0  0  0  0
  158.4984   41.8936  140.2159 N   0  0  0  0  0  0  0  0  0  0  0  0
  158.5483   41.1294  141.3270 C   0  0  0  0  0  0  0  0  0  0  0  0
  1  3  2  6  0  0  0
  1 32  1  0  0  0  0
  1  2  1  0  0  0  0
  1  4  1  0  0  0  0
  4  5  1  0  0  0  0
  6  5  1  6  0  0  0
  7  6  1  0  0  0  0
  8  6  1  0  0  0  0
  8 10  1  0  0  0  0
  8  9  1  1  0  0  0
 10 11  1  1  0  0  0
 12 13  1  6  0  0  0
 12  7  1  0  0  0  0
 12 10  1  0  0  0  0
 14 13  1  0  0  0  0
 15 16  1  0  0  0  0
 15 14  2  0  0  0  0
 16 23  2  0  0  0  0
 17 16  1  0  0  0  0
 17 19  1  0  0  0  0
 18 17  2  0  0  0  0
 19 20  2  0  0  0  0
 20 22  1  0  0  0  0
 20 21  1  0  0  0  0
 23 13  1  0  0  0  0
 23 22  1  0  0  0  0
 24 25  2  6  0  0  0
 24  9  1  0  0  0  0
 24 26  1  0  0  0  0
 27 28  1  0  0  0  0
 27 24  1  0  0  0  0
 29 30  1  6  0  0  0
 29 28  1  0  0  0  0
 31 32  1  6  0  0  0
 31 29  1  0  0  0  0
 33 34  1  1  0  0  0
 33 35  1  0  0  0  0
 33 31  1  0  0  0  0
 35 36  1  1  0  0  0
 35 30  1  0  0  0  0
 36 37  1  0  0  0  0
 38 37  2  0  0  0  0
 39 38  1  0  0  0  0
 40 41  2  0  0  0  0
 40 39  1  0  0  0  0
 42 40  1  0  0  0  0
 43 42  2  0  0  0  0
 43 45  1  0  0  0  0
 44 43  1  0  0  0  0
 45 46  1  0  0  0  0
 46 39  2  0  0  0  0
 46 36  1  0  0  0  0
M  END
>  <CHROM.1>
20.55921200,-15.55132657,157.12894239,43.62263878,143.94730892,-0.30732092
-0.16791833,1.02564808

>  <Name>
lig.pdb

>  <RI>
0

>  <Rbt.Current_Directory>
/home/itssahil/PROJECTS/Mol_Feturizer/New_Systems/rnas/4yb0

>  <Rbt.Executable>
rbdock ($Id: //depot/dev/client3/rdock/2013.1/src/exe/rbdock.cxx#4 $)

>  <Rbt.Library>
libRbt.so (2013.1, Build901 2013/11/27)

>  <Rbt.Parameter_File>
/export/apps/rDock/src/rDock_2013.1_src/data/scripts/dock_solv.prm

>  <Rbt.Receptor>
prm/pocket_docking_7.prm

>  <SCORE>
-53.5531

>  <SCORE.INTER>
-53.4777

>  <SCORE.INTER.CONST>
1

>  <SCORE.INTER.POLAR>
0

>  <SCORE.INTER.ROT>
2

>  <SCORE.INTER.SOLV>
30.7267

>  <SCORE.INTER.VDW>
-50.8274

>  <SCORE.INTER.norm>
-1.16256

>  <SCORE.INTRA>
-0.0753761

>  <SCORE.INTRA.DIHEDRAL>
-0.0270167

>  <SCORE.INTRA.DIHEDRAL.0>
4.74153

>  <SCORE.INTRA.POLAR>
0

>  <SCORE.INTRA.POLAR.0>
0

>  <SCORE.INTRA.REPUL>
0

>  <SCORE.INTRA.REPUL.0>
0

>  <SCORE.INTRA.SOLV>
-0.0120836

>  <SCORE.INTRA.SOLV.lig_0>
-60.4375

>  <SCORE.INTRA.VDW>
-0.0558259

>  <SCORE.INTRA.VDW.0>
-1.83689

>  <SCORE.INTRA.norm>
-0.00163861

>  <SCORE.RESTR>
0

>  <SCORE.RESTR.CAVITY>
0

>  <SCORE.RESTR.norm>
0

>  <SCORE.SYSTEM>
0

>  <SCORE.SYSTEM.CONST>
0

>  <SCORE.SYSTEM.DIHEDRAL>
0

>  <SCORE.SYSTEM.SOLV>
0

>  <SCORE.SYSTEM.norm>
0

>  <SCORE.heavy>
46

>  <SCORE.norm>
-1.1642

>  <RMSD>
0.459

$$$$
lig.pdb
 OpenBabel11021811523D
libRbt.so/2013.1/901 2013/11/27
 46 52  0  0  0  0  0  0  0  0999 V2000
  159.6591   46.2709  143.4666 P   0  0  2  0  0  0  0  0  0  0  0  0
  160.2998   47.6082  143.7682 O   0  0  0  0  0  0  0  0  0  0  0  0
  159.1814   46.0517  142.0543 O   0  0  0  0  0  0  0  0  0  0  0  0
  158.4356   45.9705  144.4656 O   0  0  0  0  0  0  0  0  0  0  0  0
  158.1845   46.7875  145.6016 C   0  0  0  0  0  0  0  0  0  0  0  0
  157.2499   46.0700  146.5616 C   0  0  1  0  0  0  0  0  0  0  0  0
  155.9544   46.6348  146.4182 O   0  0  0  0  0  0  0  0  0  0  0  0
  157.0898   44.5728  146.3308 C   0  0  1  0  0  0  0  0  0  0  0  0
  157.8372   43.8567  147.3029 O   0  0  0  0  0  0  0  0  0  0  0  0
  155.6208   44.3305  146.5958 C   0  0  1  0  0  0  0  0  0  0  0  0
  155.4265   44.0265  147.9785 O   0  0  0  0  0  0  0  0  0  0  0  0
  154.9410   45.6441  146.3393 C   0  0  2  0  0  0  0  0  0  0  0  0
  154.3842   45.6440  144.9657 N   0  0  0  0  0  0  0  0  0  0  0  0
  154.9979   46.1272  143.8715 C   0  0  0  0  0  0  0  0  0  0  0  0
  154.2083   45.9861  142.7799 N   0  0  0  0  0  0  0  0  0  0  0  0
  153.0609   45.4018  143.1684 C   0  0  0  0  0  0  0  0  0  0  0  0
  151.8045   44.9668  142.5140 C   0  0  0  0  0  0  0  0  0  0  0  0
  151.6416   45.1364  141.2816 O   0  0  0  0  0  0  0  0  0  0  0  0
  150.8615   44.3953  143.2824 N   0  0  0  0  0  0  0  0  0  0  0  0
  151.0406   44.2170  144.6049 C   0  0  0  0  0  0  0  0  0  0  0  0
  150.0594   43.6319  145.3276 N   0  0  0  0  0  0  0  0  0  0  0  0
  152.1607   44.5903  145.2642 N   0  0  0  0  0  0  0  0  0  0  0  0
  153.1866   45.1778  144.6119 C   0  0  0  0  0  0  0  0  0  0  0  0
  158.1257   42.2617  147.2090 P   0  0  2  0  0  0  0  0  0  0  0  0
  156.8295   41.5389  146.9340 O   0  0  0  0  0  0  0  0  0  0  0  0
  158.9696   41.9156  148.4214 O   0  0  0  0  0  0  0  0  0  0  0  0
  159.0331   42.1519  145.8771 O   0  0  0  0  0  0  0  0  0  0  0  0
  160.4260   42.4572  145.9328 C   0  0  0  0  0  0  0  0  0  0  0  0
  161.0331   42.7564  144.5586 C   0  0  1  0  0  0  0  0  0  0  0  0
  161.1570   41.5383  143.8213 O   0  0  0  0  0  0  0  0  0  0  0  0
  160.2255   43.7185  143.6900 C   0  0  1  0  0  0  0  0  0  0  0  0
  160.6732   45.0675  143.8168 O   0  0  0  0  0  0  0  0  0  0  0  0
  160.4725   43.1778  142.2941 C   0  0  1  0  0  0  0  0  0  0  0  0
  161.6672   43.7333  141.7373 O   0  0  0  0  0  0  0  0  0  0  0  0
  160.7034   41.6919  142.4738 C   0  0  2  0  0  0  0  0  0  0  0  0
  159.4175   40.9677  142.3175 N   0  0  0  0  0  0  0  0  0  0  0  0
  158.9106   40.0695  143.1851 C   0  0  0  0  0  0  0  0  0  0  0  0
  157.7066   39.5866  142.7699 N   0  0  0  0  0  0  0  0  0  0  0  0
  157.4184   40.1902  141.6060 C   0  0  0  0  0  0  0  0  0  0  0  0
  156.3109   40.1377  140.6179 C   0  0  0  0  0  0  0  0  0  0  0  0
  155.3076   39.4092  140.7753 O   0  0  0  0  0  0  0  0  0  0  0  0
  156.4053   40.9252  139.5452 N   0  0  0  0  0  0  0  0  0  0  0  0
  157.4585   41.7295  139.3337 C   0  0  0  0  0  0  0  0  0  0  0  0
  157.4564   42.4684  138.2142 N   0  0  0  0  0  0  0  0  0  0  0  0
  158.5092   41.8265  140.1816 N   0  0  0  0  0  0  0  0  0  0  0  0
  158.5487   41.0947  141.3148 C   0  0  0  0  0  0  0  0  0  0  0  0
  1  3  2  6  0  0  0
  1 32  1  0  0  0  0
  1  2  1  0  0  0  0
  1  4  1  0  0  0  0
  4  5  1  0  0  0  0
  6  5  1  6  0  0  0
  7  6  1  0  0  0  0
  8  6  1  0  0  0  0
  8 10  1  0  0  0  0
  8  9  1  1  0  0  0
 10 11  1  1  0  0  0
 12 13  1  6  0  0  0
 12  7  1  0  0  0  0
 12 10  1  0  0  0  0
 14 13  1  0  0  0  0
 15 16  1  0  0  0  0
 15 14  2  0  0  0  0
 16 23  2  0  0  0  0
 17 16  1  0  0  0  0
 17 19  1  0  0  0  0
 18 17  2  0  0  0  0
 19 20  2  0  0  0  0
 20 22  1  0  0  0  0
 20 21  1  0  0  0  0
 23 13  1  0  0  0  0
 23 22  1  0  0  0  0
 24 25  2  6  0  0  0
 24  9  1  0  0  0  0
 24 26  1  0  0  0  0
 27 28  1  0  0  0  0
 27 24  1  0  0  0  0
 29 30  1  6  0  0  0
 29 28  1  0  0  0  0
 31 32  1  6  0  0  0
 31 29  1  0  0  0  0
 33 34  1  1  0  0  0
 33 35  1  0  0  0  0
 33 31  1  0  0  0  0
 35 36  1  1  0  0  0
 35 30  1  0  0  0  0
 36 37  1  0  0  0  0
 38 37  2  0  0  0  0
 39 38  1  0  0  0  0
 40 41  2  0  0  0  0
 40 39  1  0  0  0  0
 42 40  1  0  0  0  0
 43 42  2  0  0  0  0
 43 45  1  0  0  0  0
 44 43  1  0  0  0  0
 45 46  1  0  0  0  0
 46 39  2  0  0  0  0
 46 36  1  0  0  0  0
M  END
>  <CHROM.1>
21.19215710,-13.92559925,157.13067899,43.61687907,143.94381846,-0.32741119
-0.16512126,1.01885345

>  <Name>
lig.pdb

>  <RI>
0

>  <Rbt.Current_Directory>
/home/itssahil/PROJECTS/Mol_Feturizer/New_Systems/rnas/4yb0

>  <Rbt.Executable>
rbdock ($Id: //depot/dev/client3/rdock/2013.1/src/exe/rbdock.cxx#4 $)

>  <Rbt.Library>
libRbt.so (2013.1, Build901 2013/11/27)

>  <Rbt.Parameter_File>
/export/apps/rDock/src/rDock_2013.1_src/data/scripts/dock_solv.prm

>  <Rbt.Receptor>
prm/pocket_docking_4.prm

>  <SCORE>
-53.5914

>  <SCORE.INTER>
-53.5017

>  <SCORE.INTER.CONST>
1

>  <SCORE.INTER.POLAR>
0

>  <SCORE.INTER.ROT>
2

>  <SCORE.INTER.SOLV>
30.8424

>  <SCORE.INTER.VDW>
-50.8819

>  <SCORE.INTER.norm>
-1.16308

>  <SCORE.INTRA>
-0.0897635

>  <SCORE.INTRA.DIHEDRAL>
-0.0241149

>  <SCORE.INTRA.DIHEDRAL.0>
4.74153

>  <SCORE.INTRA.POLAR>
0

>  <SCORE.INTRA.POLAR.0>
0

>  <SCORE.INTRA.REPUL>
0

>  <SCORE.INTRA.REPUL.0>
0

>  <SCORE.INTRA.SOLV>
-0.0063441

>  <SCORE.INTRA.SOLV.lig_0>
-60.4375

>  <SCORE.INTRA.VDW>
-0.074534

>  <SCORE.INTRA.VDW.0>
-1.83689

>  <SCORE.INTRA.norm>
-0.00195138

>  <SCORE.RESTR>
0

>  <SCORE.RESTR.CAVITY>
0

>  <SCORE.RESTR.norm>
0

>  <SCORE.SYSTEM>
0

>  <SCORE.SYSTEM.CONST>
0

>  <SCORE.SYSTEM.DIHEDRAL>
0

>  <SCORE.SYSTEM.SOLV>
0

>  <SCORE.SYSTEM.norm>
0

>  <SCORE.heavy>
46

>  <SCORE.norm>
-1.16503

>  <RMSD>
0.460

$$$$
lig.pdb
 OpenBabel11021811523D
libRbt.so/2013.1/901 2013/11/27
 46 52  0  0  0  0  0  0  0  0999 V2000
  159.6517   46.2468  143.4480 P   0  0  2  0  0  0  0  0  0  0  0  0
  160.2908   47.5874  143.7376 O   0  0  0  0  0  0  0  0  0  0  0  0
  159.1586   46.0209  142.0420 O   0  0  0  0  0  0  0  0  0  0  0  0
  158.4410   45.9452  144.4620 O   0  0  0  0  0  0  0  0  0  0  0  0
  158.1999   46.7651  145.5981 C   0  0  0  0  0  0  0  0  0  0  0  0
  157.2792   46.0475  146.5712 C   0  0  1  0  0  0  0  0  0  0  0  0
  155.9800   46.6069  146.4409 O   0  0  0  0  0  0  0  0  0  0  0  0
  157.1221   44.5488  146.3473 C   0  0  1  0  0  0  0  0  0  0  0  0
  157.8835   43.8389  147.3132 O   0  0  0  0  0  0  0  0  0  0  0  0
  155.6572   44.3020  146.6302 C   0  0  1  0  0  0  0  0  0  0  0  0
  155.4800   44.0020  148.0160 O   0  0  0  0  0  0  0  0  0  0  0  0
  154.9695   45.6121  146.3771 C   0  0  2  0  0  0  0  0  0  0  0  0
  154.3969   45.6052  145.0100 N   0  0  0  0  0  0  0  0  0  0  0  0
  155.0134   46.0473  143.9002 C   0  0  0  0  0  0  0  0  0  0  0  0
  154.2067   45.9124  142.8202 N   0  0  0  0  0  0  0  0  0  0  0  0
  153.0453   45.3741  143.2325 C   0  0  0  0  0  0  0  0  0  0  0  0
  151.7675   44.9692  142.6004 C   0  0  0  0  0  0  0  0  0  0  0  0
  151.5959   45.1213  141.3670 O   0  0  0  0  0  0  0  0  0  0  0  0
  150.8152   44.4438  143.3899 N   0  0  0  0  0  0  0  0  0  0  0  0
  151.0038   44.2841  144.7135 C   0  0  0  0  0  0  0  0  0  0  0  0
  150.0123   43.7455  145.4580 N   0  0  0  0  0  0  0  0  0  0  0  0
  152.1434   44.6320  145.3531 N   0  0  0  0  0  0  0  0  0  0  0  0
  153.1805   45.1727  144.6785 C   0  0  0  0  0  0  0  0  0  0  0  0
  158.1769   42.2447  147.2214 P   0  0  2  0  0  0  0  0  0  0  0  0
  156.8804   41.5161  146.9638 O   0  0  0  0  0  0  0  0  0  0  0  0
  159.0360   41.9059  148.4252 O   0  0  0  0  0  0  0  0  0  0  0  0
  159.0693   42.1338  145.8795 O   0  0  0  0  0  0  0  0  0  0  0  0
  160.4615   42.4445  145.9181 C   0  0  0  0  0  0  0  0  0  0  0  0
  161.0516   42.7413  144.5359 C   0  0  1  0  0  0  0  0  0  0  0  0
  161.1716   41.5211  143.8014 O   0  0  0  0  0  0  0  0  0  0  0  0
  160.2304   43.6973  143.6735 C   0  0  1  0  0  0  0  0  0  0  0  0
  160.6743   45.0484  143.7905 O   0  0  0  0  0  0  0  0  0  0  0  0
  160.4633   43.1527  142.2766 C   0  0  1  0  0  0  0  0  0  0  0  0
  161.6493   43.7108  141.7041 O   0  0  0  0  0  0  0  0  0  0  0  0
  160.7019   41.6683  142.4587 C   0  0  2  0  0  0  0  0  0  0  0  0
  159.4171   40.9388  142.3197 N   0  0  0  0  0  0  0  0  0  0  0  0
  158.8982   40.0816  143.2211 C   0  0  0  0  0  0  0  0  0  0  0  0
  157.6988   39.5811  142.8136 N   0  0  0  0  0  0  0  0  0  0  0  0
  157.4258   40.1312  141.6198 C   0  0  0  0  0  0  0  0  0  0  0  0
  156.3305   40.0344  140.6214 C   0  0  0  0  0  0  0  0  0  0  0  0
  155.3244   39.3146  140.7995 O   0  0  0  0  0  0  0  0  0  0  0  0
  156.4393   40.7720  139.5152 N   0  0  0  0  0  0  0  0  0  0  0  0
  157.4961   41.5649  139.2802 C   0  0  0  0  0  0  0  0  0  0  0  0
  157.5088   42.2519  138.1281 N   0  0  0  0  0  0  0  0  0  0  0  0
  158.5364   41.6997  140.1357 N   0  0  0  0  0  0  0  0  0  0  0  0
  158.5609   41.0205  141.3016 C   0  0  0  0  0  0  0  0  0  0  0  0
  1  3  2  6  0  0  0
  1 32  1  0  0  0  0
  1  2  1  0  0  0  0
  1  4  1  0  0  0  0
  4  5  1  0  0  0  0
  6  5  1  6  0  0  0
  7  6  1  0  0  0  0
  8  6  1  0  0  0  0
  8 10  1  0  0  0  0
  8  9  1  1  0  0  0
 10 11  1  1  0  0  0
 12 13  1  6  0  0  0
 12  7  1  0  0  0  0
 12 10  1  0  0  0  0
 14 13  1  0  0  0  0
 15 16  1  0  0  0  0
 15 14  2  0  0  0  0
 16 23  2  0  0  0  0
 17 16  1  0  0  0  0
 17 19  1  0  0  0  0
 18 17  2  0  0  0  0
 19 20  2  0  0  0  0
 20 22  1  0  0  0  0
 20 21  1  0  0  0  0
 23 13  1  0  0  0  0
 23 22  1  0  0  0  0
 24 25  2  6  0  0  0
 24  9  1  0  0  0  0
 24 26  1  0  0  0  0
 27 28  1  0  0  0  0
 27 24  1  0  0  0  0
 29 30  1  6  0  0  0
 29 28  1  0  0  0  0
 31 32  1  6  0  0  0
 31 29  1  0  0  0  0
 33 34  1  1  0  0  0
 33 35  1  0  0  0  0
 33 31  1  0  0  0  0
 35 36  1  1  0  0  0
 35 30  1  0  0  0  0
 36 37  1  0  0  0  0
 38 37  2  0  0  0  0
 39 38  1  0  0  0  0
 40 41  2  0  0  0  0
 40 39  1  0  0  0  0
 42 40  1  0  0  0  0
 43 42  2  0  0  0  0
 43 45  1  0  0  0  0
 44 43  1  0  0  0  0
 45 46  1  0  0  0  0
 46 39  2  0  0  0  0
 46 36  1  0  0  0  0
M  END
>  <CHROM.1>
23.48776578,-11.12669600,157.14144572,43.58521291,143.95798598,-0.36573253
-0.16223427,1.01187128

>  <Name>
lig.pdb

>  <RI>
0

>  <Rbt.Current_Directory>
/home/itssahil/PROJECTS/Mol_Feturizer/New_Systems/rnas/4yb0

>  <Rbt.Executable>
rbdock ($Id: //depot/dev/client3/rdock/2013.1/src/exe/rbdock.cxx#4 $)

>  <Rbt.Library>
libRbt.so (2013.1, Build901 2013/11/27)

>  <Rbt.Parameter_File>
/export/apps/rDock/src/rDock_2013.1_src/data/scripts/dock_solv.prm

>  <Rbt.Receptor>
prm/pocket_docking_2.prm

>  <SCORE>
-53.7244

>  <SCORE.INTER>
-53.585

>  <SCORE.INTER.CONST>
1

>  <SCORE.INTER.POLAR>
0

>  <SCORE.INTER.ROT>
2

>  <SCORE.INTER.SOLV>
31.191

>  <SCORE.INTER.VDW>
-51.0536

>  <SCORE.INTER.norm>
-1.16489

>  <SCORE.INTRA>
-0.139443

>  <SCORE.INTRA.DIHEDRAL>
-0.0193289

>  <SCORE.INTRA.DIHEDRAL.0>
4.74153

>  <SCORE.INTRA.POLAR>
0

>  <SCORE.INTRA.POLAR.0>
0

>  <SCORE.INTRA.REPUL>
0

>  <SCORE.INTRA.REPUL.0>
0

>  <SCORE.INTRA.SOLV>
0.00521471

>  <SCORE.INTRA.SOLV.lig_0>
-60.4375

>  <SCORE.INTRA.VDW>
-0.132386

>  <SCORE.INTRA.VDW.0>
-1.83689

>  <SCORE.INTRA.norm>
-0.00303137

>  <SCORE.RESTR>
0

>  <SCORE.RESTR.CAVITY>
0

>  <SCORE.RESTR.norm>
0

>  <SCORE.SYSTEM>
0

>  <SCORE.SYSTEM.CONST>
0

>  <SCORE.SYSTEM.DIHEDRAL>
0

>  <SCORE.SYSTEM.SOLV>
0

>  <SCORE.SYSTEM.norm>
0

>  <SCORE.heavy>
46

>  <SCORE.norm>
-1.16792

>  <RMSD>
0.461

$$$$
lig.pdb
 OpenBabel11021811523D
libRbt.so/2013.1/901 2013/11/27
 46 52  0  0  0  0  0  0  0  0999 V2000
  159.6840   46.2468  143.4989 P   0  0  2  0  0  0  0  0  0  0  0  0
  160.3316   47.5791  143.8077 O   0  0  0  0  0  0  0  0  0  0  0  0
  159.2183   46.0321  142.0819 O   0  0  0  0  0  0  0  0  0  0  0  0
  158.4487   45.9547  144.4858 O   0  0  0  0  0  0  0  0  0  0  0  0
  158.1927   46.7727  145.6200 C   0  0  0  0  0  0  0  0  0  0  0  0
  157.2437   46.0615  146.5704 C   0  0  1  0  0  0  0  0  0  0  0  0
  155.9538   46.6359  146.4150 O   0  0  0  0  0  0  0  0  0  0  0  0
  157.0747   44.5656  146.3368 C   0  0  1  0  0  0  0  0  0  0  0  0
  157.8075   43.8433  147.3155 O   0  0  0  0  0  0  0  0  0  0  0  0
  155.6015   44.3340  146.5875 C   0  0  1  0  0  0  0  0  0  0  0  0
  155.3916   44.0304  147.9680 O   0  0  0  0  0  0  0  0  0  0  0  0
  154.9339   45.6527  146.3255 C   0  0  2  0  0  0  0  0  0  0  0  0
  154.3903   45.6577  144.9466 N   0  0  0  0  0  0  0  0  0  0  0  0
  155.0111   46.1525  143.8616 C   0  0  0  0  0  0  0  0  0  0  0  0
  154.2331   46.0129  142.7615 N   0  0  0  0  0  0  0  0  0  0  0  0
  153.0862   45.4180  143.1350 C   0  0  0  0  0  0  0  0  0  0  0  0
  151.8394   44.9784  142.4656 C   0  0  0  0  0  0  0  0  0  0  0  0
  151.6872   45.1550  141.2329 O   0  0  0  0  0  0  0  0  0  0  0  0
  150.8931   44.3952  143.2212 N   0  0  0  0  0  0  0  0  0  0  0  0
  151.0607   44.2094  144.5442 C   0  0  0  0  0  0  0  0  0  0  0  0
  150.0768   43.6126  145.2535 N   0  0  0  0  0  0  0  0  0  0  0  0
  152.1718   44.5864  145.2167 N   0  0  0  0  0  0  0  0  0  0  0  0
  153.1997   45.1854  144.5782 C   0  0  0  0  0  0  0  0  0  0  0  0
  158.0851   42.2462  147.2231 P   0  0  2  0  0  0  0  0  0  0  0  0
  156.7863   41.5333  146.9351 O   0  0  0  0  0  0  0  0  0  0  0  0
  158.9146   41.8930  148.4434 O   0  0  0  0  0  0  0  0  0  0  0  0
  159.0044   42.1308  145.8999 O   0  0  0  0  0  0  0  0  0  0  0  0
  160.3989   42.4258  145.9693 C   0  0  0  0  0  0  0  0  0  0  0  0
  161.0214   42.7215  144.6012 C   0  0  1  0  0  0  0  0  0  0  0  0
  161.1435   41.5030  143.8642 O   0  0  0  0  0  0  0  0  0  0  0  0
  160.2294   43.6901  143.7258 C   0  0  1  0  0  0  0  0  0  0  0  0
  160.6857   45.0357  143.8579 O   0  0  0  0  0  0  0  0  0  0  0  0
  160.4858   43.1486  142.3318 C   0  0  1  0  0  0  0  0  0  0  0  0
  161.6898   43.6957  141.7870 O   0  0  0  0  0  0  0  0  0  0  0  0
  160.7040   41.6609  142.5125 C   0  0  2  0  0  0  0  0  0  0  0  0
  159.4144   40.9464  142.3433 N   0  0  0  0  0  0  0  0  0  0  0  0
  158.8963   40.0455  143.2014 C   0  0  0  0  0  0  0  0  0  0  0  0
  157.6917   39.5734  142.7755 N   0  0  0  0  0  0  0  0  0  0  0  0
  157.4146   40.1871  141.6141 C   0  0  0  0  0  0  0  0  0  0  0  0
  156.3129   40.1489  140.6190 C   0  0  0  0  0  0  0  0  0  0  0  0
  155.3039   39.4259  140.7650 O   0  0  0  0  0  0  0  0  0  0  0  0
  156.4190   40.9433  139.5525 N   0  0  0  0  0  0  0  0  0  0  0  0
  157.4788   41.7421  139.3531 C   0  0  0  0  0  0  0  0  0  0  0  0
  157.4884   42.4888  138.2388 N   0  0  0  0  0  0  0  0  0  0  0  0
  158.5249   41.8262  140.2080 N   0  0  0  0  0  0  0  0  0  0  0  0
  158.5526   41.0862  141.3363 C   0  0  0  0  0  0  0  0  0  0  0  0
  1  3  2  6  0  0  0
  1 32  1  0  0  0  0
  1  2  1  0  0  0  0
  1  4  1  0  0  0  0
  4  5  1  0  0  0  0
  6  5  1  6  0  0  0
  7  6  1  0  0  0  0
  8  6  1  0  0  0  0
  8 10  1  0  0  0  0
  8  9  1  1  0  0  0
 10 11  1  1  0  0  0
 12 13  1  6  0  0  0
 12  7  1  0  0  0  0
 12 10  1  0  0  0  0
 14 13  1  0  0  0  0
 15 16  1  0  0  0  0
 15 14  2  0  0  0  0
 16 23  2  0  0  0  0
 17 16  1  0  0  0  0
 17 19  1  0  0  0  0
 18 17  2  0  0  0  0
 19 20  2  0  0  0  0
 20 22  1  0  0  0  0
 20 21  1  0  0  0  0
 23 13  1  0  0  0  0
 23 22  1  0  0  0  0
 24 25  2  6  0  0  0
 24  9  1  0  0  0  0
 24 26  1  0  0  0  0
 27 28  1  0  0  0  0
 27 24  1  0  0  0  0
 29 30  1  6  0  0  0
 29 28  1  0  0  0  0
 31 32  1  6  0  0  0
 31 29  1  0  0  0  0
 33 34  1  1  0  0  0
 33 35  1  0  0  0  0
 33 31  1  0  0  0  0
 35 36  1  1  0  0  0
 35 30  1  0  0  0  0
 36 37  1  0  0  0  0
 38 37  2  0  0  0  0
 39 38  1  0  0  0  0
 40 41  2  0  0  0  0
 40 39  1  0  0  0  0
 42 40  1  0  0  0  0
 43 42  2  0  0  0  0
 43 45  1  0  0  0  0
 44 43  1  0  0  0  0
 45 46  1  0  0  0  0
 46 39  2  0  0  0  0
 46 36  1  0  0  0  0
M  END
>  <CHROM.1>
20.29694351,-14.34150204,157.13246444,43.60833884,143.94996979,-0.31699257
-0.17355905,1.01990558

>  <Name>
lig.pdb

>  <RI>
0

>  <Rbt.Current_Directory>
/home/itssahil/PROJECTS/Mol_Feturizer/New_Systems/rnas/4yb0

>  <Rbt.Executable>
rbdock ($Id: //depot/dev/client3/rdock/2013.1/src/exe/rbdock.cxx#4 $)

>  <Rbt.Library>
libRbt.so (2013.1, Build901 2013/11/27)

>  <Rbt.Parameter_File>
/export/apps/rDock/src/rDock_2013.1_src/data/scripts/dock_solv.prm

>  <Rbt.Receptor>
prm/pocket_docking_4.prm

>  <SCORE>
-53.5638

>  <SCORE.INTER>
-53.4834

>  <SCORE.INTER.CONST>
1

>  <SCORE.INTER.POLAR>
0

>  <SCORE.INTER.ROT>
2

>  <SCORE.INTER.SOLV>
30.728

>  <SCORE.INTER.VDW>
-50.8316

>  <SCORE.INTER.norm>
-1.16268

>  <SCORE.INTRA>
-0.0804333

>  <SCORE.INTRA.DIHEDRAL>
-0.0240957

>  <SCORE.INTRA.DIHEDRAL.0>
4.74153

>  <SCORE.INTRA.POLAR>
0

>  <SCORE.INTRA.POLAR.0>
0

>  <SCORE.INTRA.REPUL>
0

>  <SCORE.INTRA.REPUL.0>
0

>  <SCORE.INTRA.SOLV>
-0.0089597

>  <SCORE.INTRA.SOLV.lig_0>
-60.4375

>  <SCORE.INTRA.VDW>
-0.0639056

>  <SCORE.INTRA.VDW.0>
-1.83689

>  <SCORE.INTRA.norm>
-0.00174855

>  <SCORE.RESTR>
0

>  <SCORE.RESTR.CAVITY>
0

>  <SCORE.RESTR.norm>
0

>  <SCORE.SYSTEM>
0

>  <SCORE.SYSTEM.CONST>
0

>  <SCORE.SYSTEM.DIHEDRAL>
0

>  <SCORE.SYSTEM.SOLV>
0

>  <SCORE.SYSTEM.norm>
0

>  <SCORE.heavy>
46

>  <SCORE.norm>
-1.16443

>  <RMSD>
0.461

$$$$
lig.pdb
 OpenBabel11021811523D
libRbt.so/2013.1/901 2013/11/27
 46 52  0  0  0  0  0  0  0  0999 V2000
  158.6102   42.0879  147.4981 P   0  0  2  0  0  0  0  0  0  0  0  0
  159.5153   41.3717  148.4766 O   0  0  0  0  0  0  0  0  0  0  0  0
  157.2164   41.5381  147.3371 O   0  0  0  0  0  0  0  0  0  0  0  0
  159.2851   42.1865  146.0421 O   0  0  0  0  0  0  0  0  0  0  0  0
  160.6443   41.8300  145.8261 C   0  0  0  0  0  0  0  0  0  0  0  0
  161.1207   42.3809  144.4922 C   0  0  1  0  0  0  0  0  0  0  0  0
  161.1505   41.3096  143.5597 O   0  0  0  0  0  0  0  0  0  0  0  0
  160.2420   43.4603  143.8728 C   0  0  1  0  0  0  0  0  0  0  0  0
  160.8482   44.7317  144.0533 O   0  0  0  0  0  0  0  0  0  0  0  0
  160.2688   43.1324  142.3968 C   0  0  1  0  0  0  0  0  0  0  0  0
  161.3579   43.8159  141.7732 O   0  0  0  0  0  0  0  0  0  0  0  0
  160.5713   41.6644  142.3134 C   0  0  2  0  0  0  0  0  0  0  0  0
  159.3033   40.9147  142.1494 N   0  0  0  0  0  0  0  0  0  0  0  0
  158.7992   40.0272  143.0243 C   0  0  0  0  0  0  0  0  0  0  0  0
  157.6344   39.5115  142.5634 N   0  0  0  0  0  0  0  0  0  0  0  0
  157.3749   40.0714  141.3684 C   0  0  0  0  0  0  0  0  0  0  0  0
  156.3058   39.9708  140.3471 C   0  0  0  0  0  0  0  0  0  0  0  0
  155.3374   39.1922  140.5198 O   0  0  0  0  0  0  0  0  0  0  0  0
  156.4158   40.7331  139.2457 N   0  0  0  0  0  0  0  0  0  0  0  0
  157.4581   41.5661  139.0644 C   0  0  0  0  0  0  0  0  0  0  0  0
  157.5142   42.3127  137.9390 N   0  0  0  0  0  0  0  0  0  0  0  0
  158.4663   41.7060  139.9548 N   0  0  0  0  0  0  0  0  0  0  0  0
  158.4804   40.9976  141.1042 C   0  0  0  0  0  0  0  0  0  0  0  0
  160.0805   46.1340  143.7701 P   0  0  2  0  0  0  0  0  0  0  0  0
  159.4242   46.0744  142.4121 O   0  0  0  0  0  0  0  0  0  0  0  0
  161.0717   47.2313  144.1097 O   0  0  0  0  0  0  0  0  0  0  0  0
  158.9044   46.1145  144.8773 O   0  0  0  0  0  0  0  0  0  0  0  0
  159.1870   46.4775  146.2281 C   0  0  0  0  0  0  0  0  0  0  0  0
  158.1325   45.9772  147.2201 C   0  0  1  0  0  0  0  0  0  0  0  0
  156.9440   46.7588  147.0808 O   0  0  0  0  0  0  0  0  0  0  0  0
  157.7233   44.5161  147.0474 C   0  0  1  0  0  0  0  0  0  0  0  0
  158.4636   43.6426  147.8989 O   0  0  0  0  0  0  0  0  0  0  0  0
  156.2533   44.5462  147.4217 C   0  0  1  0  0  0  0  0  0  0  0  0
  156.0844   44.3901  148.8334 O   0  0  0  0  0  0  0  0  0  0  0  0
  155.7744   45.9361  147.0579 C   0  0  2  0  0  0  0  0  0  0  0  0
  155.2245   45.9263  145.6797 N   0  0  0  0  0  0  0  0  0  0  0  0
  155.8393   46.4153  144.5844 C   0  0  0  0  0  0  0  0  0  0  0  0
  155.0856   46.2480  143.4623 N   0  0  0  0  0  0  0  0  0  0  0  0
  153.9543   45.6284  143.8344 C   0  0  0  0  0  0  0  0  0  0  0  0
  152.7177   45.1600  143.1582 C   0  0  0  0  0  0  0  0  0  0  0  0
  152.5407   45.2826  141.9271 O   0  0  0  0  0  0  0  0  0  0  0  0
  151.7899   44.5689  143.9128 N   0  0  0  0  0  0  0  0  0  0  0  0
  151.9352   44.4079  145.2371 C   0  0  0  0  0  0  0  0  0  0  0  0
  150.9329   43.8125  145.9006 N   0  0  0  0  0  0  0  0  0  0  0  0
  153.0270   44.8151  145.9260 N   0  0  0  0  0  0  0  0  0  0  0  0
  154.0527   45.4224  145.2933 C   0  0  0  0  0  0  0  0  0  0  0  0
  1  3  2  6  0  0  0
  1 32  1  0  0  0  0
  1  2  1  0  0  0  0
  1  4  1  0  0  0  0
  4  5  1  0  0  0  0
  6  5  1  1  0  0  0
  7  6  1  0  0  0  0
  8  6  1  0  0  0  0
  8 10  1  0  0  0  0
  8  9  1  6  0  0  0
 10 11  1  6  0  0  0
 12 13  1  1  0  0  0
 12  7  1  0  0  0  0
 12 10  1  0  0  0  0
 14 13  1  0  0  0  0
 15 16  1  0  0  0  0
 15 14  2  0  0  0  0
 16 23  2  0  0  0  0
 17 16  1  0  0  0  0
 17 19  1  0  0  0  0
 18 17  2  0  0  0  0
 19 20  2  0  0  0  0
 20 22  1  0  0  0  0
 20 21  1  0  0  0  0
 23 13  1  0  0  0  0
 23 22  1  0  0  0  0
 24 25  2  6  0  0  0
 24  9  1  0  0  0  0
 24 26  1  0  0  0  0
 27 28  1  0  0  0  0
 27 24  1  0  0  0  0
 29 30  1  6  0  0  0
 29 28  1  0  0  0  0
 31 32  1  1  0  0  0
 31 29  1  0  0  0  0
 33 34  1  1  0  0  0
 33 35  1  0  0  0  0
 33 31  1  0  0  0  0
 35 36  1  6  0  0  0
 35 30  1  0  0  0  0
 36 37  1  0  0  0  0
 38 37  2  0  0  0  0
 39 38  1  0  0  0  0
 40 41  2  0  0  0  0
 40 39  1  0  0  0  0
 42 40  1  0  0  0  0
 43 42  2  0  0  0  0
 43 45  1  0  0  0  0
 44 43  1  0  0  0  0
 45 46  1  0  0  0  0
 46 39  2  0  0  0  0
 46 36  1  0  0  0  0
M  END
>  <CHROM.1>
-1.16419900,10.41857238,157.54632957,43.57424674,144.22079005,-2.14183696
0.18243324,-2.11263100

>  <Name>
lig.pdb

>  <RI>
0

>  <Rbt.Current_Directory>
/home/itssahil/PROJECTS/Mol_Feturizer/New_Systems/rnas/4yb0

>  <Rbt.Executable>
rbdock ($Id: //depot/dev/client3/rdock/2013.1/src/exe/rbdock.cxx#4 $)

>  <Rbt.Library>
libRbt.so (2013.1, Build901 2013/11/27)

>  <Rbt.Parameter_File>
/export/apps/rDock/src/rDock_2013.1_src/data/scripts/dock_solv.prm

>  <Rbt.Receptor>
prm/pocket_docking_3.prm

>  <SCORE>
-50.5227

>  <SCORE.INTER>
-50.5542

>  <SCORE.INTER.CONST>
1

>  <SCORE.INTER.POLAR>
0

>  <SCORE.INTER.ROT>
2

>  <SCORE.INTER.SOLV>
29.1739

>  <SCORE.INTER.VDW>
-48.3608

>  <SCORE.INTER.norm>
-1.099

>  <SCORE.INTRA>
0.0314366

>  <SCORE.INTRA.DIHEDRAL>
0.0902274

>  <SCORE.INTRA.DIHEDRAL.0>
4.74153

>  <SCORE.INTRA.POLAR>
0

>  <SCORE.INTRA.POLAR.0>
0

>  <SCORE.INTRA.REPUL>
0

>  <SCORE.INTRA.REPUL.0>
0

>  <SCORE.INTRA.SOLV>
0.113041

>  <SCORE.INTRA.SOLV.lig_0>
-60.4375

>  <SCORE.INTRA.VDW>
-0.0701974

>  <SCORE.INTRA.VDW.0>
-1.83689

>  <SCORE.INTRA.norm>
0.000683405

>  <SCORE.RESTR>
0

>  <SCORE.RESTR.CAVITY>
0

>  <SCORE.RESTR.norm>
0

>  <SCORE.SYSTEM>
0

>  <SCORE.SYSTEM.CONST>
0

>  <SCORE.SYSTEM.DIHEDRAL>
0

>  <SCORE.SYSTEM.SOLV>
0

>  <SCORE.SYSTEM.norm>
0

>  <SCORE.heavy>
46

>  <SCORE.norm>
-1.09832

>  <RMSD>
0.463

$$$$
lig.pdb
 OpenBabel11021811523D
libRbt.so/2013.1/901 2013/11/27
 46 52  0  0  0  0  0  0  0  0999 V2000
  159.6786   46.2338  143.4744 P   0  0  2  0  0  0  0  0  0  0  0  0
  160.3303   47.5659  143.7751 O   0  0  0  0  0  0  0  0  0  0  0  0
  159.2069   46.0142  142.0600 O   0  0  0  0  0  0  0  0  0  0  0  0
  158.4466   45.9485  144.4672 O   0  0  0  0  0  0  0  0  0  0  0  0
  158.1968   46.7717  145.5990 C   0  0  0  0  0  0  0  0  0  0  0  0
  157.2499   46.0665  146.5560 C   0  0  1  0  0  0  0  0  0  0  0  0
  155.9606   46.6431  146.4033 O   0  0  0  0  0  0  0  0  0  0  0  0
  157.0768   44.5700  146.3294 C   0  0  1  0  0  0  0  0  0  0  0  0
  157.8118   43.8502  147.3082 O   0  0  0  0  0  0  0  0  0  0  0  0
  155.6040   44.3428  146.5868 C   0  0  1  0  0  0  0  0  0  0  0  0
  155.3989   44.0454  147.9693 O   0  0  0  0  0  0  0  0  0  0  0  0
  154.9383   45.6619  146.3219 C   0  0  2  0  0  0  0  0  0  0  0  0
  154.3894   45.6623  144.9451 N   0  0  0  0  0  0  0  0  0  0  0  0
  155.0046   46.1564  143.8566 C   0  0  0  0  0  0  0  0  0  0  0  0
  154.2227   46.0123  142.7598 N   0  0  0  0  0  0  0  0  0  0  0  0
  153.0789   45.4151  143.1392 C   0  0  0  0  0  0  0  0  0  0  0  0
  151.8306   44.9706  142.4756 C   0  0  0  0  0  0  0  0  0  0  0  0
  151.6731   45.1440  141.2431 O   0  0  0  0  0  0  0  0  0  0  0  0
  150.8889   44.3864  143.2361 N   0  0  0  0  0  0  0  0  0  0  0  0
  151.0622   44.2040  144.5588 C   0  0  0  0  0  0  0  0  0  0  0  0
  150.0827   43.6061  145.2733 N   0  0  0  0  0  0  0  0  0  0  0  0
  152.1748   44.5855  145.2262 N   0  0  0  0  0  0  0  0  0  0  0  0
  153.1986   45.1859  144.5824 C   0  0  0  0  0  0  0  0  0  0  0  0
  158.0855   42.2522  147.2214 P   0  0  2  0  0  0  0  0  0  0  0  0
  156.7841   41.5409  146.9413 O   0  0  0  0  0  0  0  0  0  0  0  0
  158.9191   41.9023  148.4398 O   0  0  0  0  0  0  0  0  0  0  0  0
  158.9994   42.1293  145.8951 O   0  0  0  0  0  0  0  0  0  0  0  0
  160.3948   42.4215  145.9578 C   0  0  0  0  0  0  0  0  0  0  0  0
  161.0126   42.7101  144.5861 C   0  0  1  0  0  0  0  0  0  0  0  0
  161.1291   41.4883  143.8537 O   0  0  0  0  0  0  0  0  0  0  0  0
  160.2193   43.6768  143.7097 C   0  0  1  0  0  0  0  0  0  0  0  0
  160.6791   45.0219  143.8344 O   0  0  0  0  0  0  0  0  0  0  0  0
  160.4691   43.1290  142.3170 C   0  0  1  0  0  0  0  0  0  0  0  0
  161.6722   43.6712  141.7652 O   0  0  0  0  0  0  0  0  0  0  0  0
  160.6847   41.6416  142.5030 C   0  0  2  0  0  0  0  0  0  0  0  0
  159.3929   40.9292  142.3418 N   0  0  0  0  0  0  0  0  0  0  0  0
  158.8778   40.0305  143.2040 C   0  0  0  0  0  0  0  0  0  0  0  0
  157.6700   39.5601  142.7853 N   0  0  0  0  0  0  0  0  0  0  0  0
  157.3879   40.1726  141.6245 C   0  0  0  0  0  0  0  0  0  0  0  0
  156.2807   40.1349  140.6354 C   0  0  0  0  0  0  0  0  0  0  0  0
  155.2712   39.4140  140.7880 O   0  0  0  0  0  0  0  0  0  0  0  0
  156.3826   40.9275  139.5672 N   0  0  0  0  0  0  0  0  0  0  0  0
  157.4427   41.7240  139.3609 C   0  0  0  0  0  0  0  0  0  0  0  0
  157.4477   42.4691  138.2455 N   0  0  0  0  0  0  0  0  0  0  0  0
  158.4935   41.8075  140.2100 N   0  0  0  0  0  0  0  0  0  0  0  0
  158.5260   41.0691  141.3392 C   0  0  0  0  0  0  0  0  0  0  0  0
  1  3  2  6  0  0  0
  1 32  1  0  0  0  0
  1  2  1  0  0  0  0
  1  4  1  0  0  0  0
  4  5  1  0  0  0  0
  6  5  1  6  0  0  0
  7  6  1  0  0  0  0
  8  6  1  0  0  0  0
  8 10  1  0  0  0  0
  8  9  1  1  0  0  0
 10 11  1  1  0  0  0
 12 13  1  6  0  0  0
 12  7  1  0  0  0  0
 12 10  1  0  0  0  0
 14 13  1  0  0  0  0
 15 16  1  0  0  0  0
 15 14  2  0  0  0  0
 16 23  2  0  0  0  0
 17 16  1  0  0  0  0
 17 19  1  0  0  0  0
 18 17  2  0  0  0  0
 19 20  2  0  0  0  0
 20 22  1  0  0  0  0
 20 21  1  0  0  0  0
 23 13  1  0  0  0  0
 23 22  1  0  0  0  0
 24 25  2  6  0  0  0
 24  9  1  0  0  0  0
 24 26  1  0  0  0  0
 27 28  1  0  0  0  0
 27 24  1  0  0  0  0
 29 30  1  6  0  0  0
 29 28  1  0  0  0  0
 31 32  1  6  0  0  0
 31 29  1  0  0  0  0
 33 34  1  1  0  0  0
 33 35  1  0  0  0  0
 33 31  1  0  0  0  0
 35 36  1  1  0  0  0
 35 30  1  0  0  0  0
 36 37  1  0  0  0  0
 38 37  2  0  0  0  0
 39 38  1  0  0  0  0
 40 41  2  0  0  0  0
 40 39  1  0  0  0  0
 42 40  1  0  0  0  0
 43 42  2  0  0  0  0
 43 45  1  0  0  0  0
 44 43  1  0  0  0  0
 45 46  1  0  0  0  0
 46 39  2  0  0  0  0
 46 36  1  0  0  0  0
M  END
>  <CHROM.1>
19.99323159,-14.51713254,157.12333729,43.60199620,143.94650731,-0.31918683
-0.17242085,1.01485672

>  <Name>
lig.pdb

>  <RI>
0

>  <Rbt.Current_Directory>
/home/itssahil/PROJECTS/Mol_Feturizer/New_Systems/rnas/4yb0

>  <Rbt.Executable>
rbdock ($Id: //depot/dev/client3/rdock/2013.1/src/exe/rbdock.cxx#4 $)

>  <Rbt.Library>
libRbt.so (2013.1, Build901 2013/11/27)

>  <Rbt.Parameter_File>
/export/apps/rDock/src/rDock_2013.1_src/data/scripts/dock_solv.prm

>  <Rbt.Receptor>
prm/pocket_docking_3.prm

>  <SCORE>
-53.574

>  <SCORE.INTER>
-53.4803

>  <SCORE.INTER.CONST>
1

>  <SCORE.INTER.POLAR>
0

>  <SCORE.INTER.ROT>
2

>  <SCORE.INTER.SOLV>
30.8235

>  <SCORE.INTER.VDW>
-50.8613

>  <SCORE.INTER.norm>
-1.16261

>  <SCORE.INTRA>
-0.0936975

>  <SCORE.INTRA.DIHEDRAL>
-0.0241413

>  <SCORE.INTRA.DIHEDRAL.0>
4.74153

>  <SCORE.INTRA.POLAR>
0

>  <SCORE.INTRA.POLAR.0>
0

>  <SCORE.INTRA.REPUL>
0

>  <SCORE.INTRA.REPUL.0>
0

>  <SCORE.INTRA.SOLV>
-0.00945306

>  <SCORE.INTRA.SOLV.lig_0>
-60.4375

>  <SCORE.INTRA.VDW>
-0.0769004

>  <SCORE.INTRA.VDW.0>
-1.83689

>  <SCORE.INTRA.norm>
-0.0020369

>  <SCORE.RESTR>
0

>  <SCORE.RESTR.CAVITY>
0

>  <SCORE.RESTR.norm>
0

>  <SCORE.SYSTEM>
0

>  <SCORE.SYSTEM.CONST>
0

>  <SCORE.SYSTEM.DIHEDRAL>
0

>  <SCORE.SYSTEM.SOLV>
0

>  <SCORE.SYSTEM.norm>
0

>  <SCORE.heavy>
46

>  <SCORE.norm>
-1.16465

>  <RMSD>
0.463

$$$$
lig.pdb
 OpenBabel11021811523D
libRbt.so/2013.1/901 2013/11/27
 46 52  0  0  0  0  0  0  0  0999 V2000
  158.3150   42.3903  147.5107 P   0  0  2  0  0  0  0  0  0  0  0  0
  159.2334   41.8032  148.5603 O   0  0  0  0  0  0  0  0  0  0  0  0
  156.9629   41.7433  147.3551 O   0  0  0  0  0  0  0  0  0  0  0  0
  159.0250   42.4290  146.0686 O   0  0  0  0  0  0  0  0  0  0  0  0
  160.4092   42.1451  145.9127 C   0  0  0  0  0  0  0  0  0  0  0  0
  160.8897   42.6301  144.5548 C   0  0  1  0  0  0  0  0  0  0  0  0
  161.0125   41.5002  143.7028 O   0  0  0  0  0  0  0  0  0  0  0  0
  159.9649   43.6056  143.8379 C   0  0  1  0  0  0  0  0  0  0  0  0
  160.4862   44.9224  143.9415 O   0  0  0  0  0  0  0  0  0  0  0  0
  160.0550   43.1774  142.3903 C   0  0  1  0  0  0  0  0  0  0  0  0
  161.1177   43.8831  141.7465 O   0  0  0  0  0  0  0  0  0  0  0  0
  160.4494   41.7293  142.4202 C   0  0  2  0  0  0  0  0  0  0  0  0
  159.2352   40.8911  142.2790 N   0  0  0  0  0  0  0  0  0  0  0  0
  158.8940   39.8655  143.0784 C   0  0  0  0  0  0  0  0  0  0  0  0
  157.7336   39.3027  142.6637 N   0  0  0  0  0  0  0  0  0  0  0  0
  157.3115   39.9717  141.5760 C   0  0  0  0  0  0  0  0  0  0  0  0
  156.1567   39.8933  140.6507 C   0  0  0  0  0  0  0  0  0  0  0  0
  155.2757   39.0147  140.8116 O   0  0  0  0  0  0  0  0  0  0  0  0
  156.0943   40.7854  139.6473 N   0  0  0  0  0  0  0  0  0  0  0  0
  157.0432   41.7255  139.4780 C   0  0  0  0  0  0  0  0  0  0  0  0
  156.9262   42.6000  138.4539 N   0  0  0  0  0  0  0  0  0  0  0  0
  158.1214   41.8524  140.2844 N   0  0  0  0  0  0  0  0  0  0  0  0
  158.3074   41.0194  141.3306 C   0  0  0  0  0  0  0  0  0  0  0  0
  159.6424   46.2499  143.5393 P   0  0  2  0  0  0  0  0  0  0  0  0
  159.0311   46.0537  142.1733 O   0  0  0  0  0  0  0  0  0  0  0  0
  160.5540   47.4290  143.8237 O   0  0  0  0  0  0  0  0  0  0  0  0
  158.4379   46.2336  144.6155 O   0  0  0  0  0  0  0  0  0  0  0  0
  158.6580   46.7077  145.9433 C   0  0  0  0  0  0  0  0  0  0  0  0
  157.6076   46.2123  146.9423 C   0  0  1  0  0  0  0  0  0  0  0  0
  156.3779   46.9054  146.7177 O   0  0  0  0  0  0  0  0  0  0  0  0
  157.2942   44.7198  146.8648 C   0  0  1  0  0  0  0  0  0  0  0  0
  158.0615   43.9568  147.7951 O   0  0  0  0  0  0  0  0  0  0  0  0
  155.8147   44.6829  147.1994 C   0  0  1  0  0  0  0  0  0  0  0  0
  155.6146   44.6157  148.6140 O   0  0  0  0  0  0  0  0  0  0  0  0
  155.2623   46.0107  146.7249 C   0  0  2  0  0  0  0  0  0  0  0  0
  154.7546   45.8694  145.3377 N   0  0  0  0  0  0  0  0  0  0  0  0
  155.4390   46.1683  144.2158 C   0  0  0  0  0  0  0  0  0  0  0  0
  154.7081   45.9191  143.0938 N   0  0  0  0  0  0  0  0  0  0  0  0
  153.5199   45.4393  143.4943 C   0  0  0  0  0  0  0  0  0  0  0  0
  152.2703   44.9851  142.8326 C   0  0  0  0  0  0  0  0  0  0  0  0
  152.1404   44.9649  141.5897 O   0  0  0  0  0  0  0  0  0  0  0  0
  151.2759   44.5661  143.6170 N   0  0  0  0  0  0  0  0  0  0  0  0
  151.3683   44.5625  144.9557 C   0  0  0  0  0  0  0  0  0  0  0  0
  150.3020   44.1335  145.6473 N   0  0  0  0  0  0  0  0  0  0  0  0
  152.4683   44.9687  145.6318 N   0  0  0  0  0  0  0  0  0  0  0  0
  153.5580   45.4117  144.9702 C   0  0  0  0  0  0  0  0  0  0  0  0
  1  3  2  6  0  0  0
  1 32  1  0  0  0  0
  1  2  1  0  0  0  0
  1  4  1  0  0  0  0
  4  5  1  0  0  0  0
  6  5  1  1  0  0  0
  7  6  1  0  0  0  0
  8  6  1  0  0  0  0
  8 10  1  0  0  0  0
  8  9  1  6  0  0  0
 10 11  1  6  0  0  0
 12 13  1  1  0  0  0
 12  7  1  0  0  0  0
 12 10  1  0  0  0  0
 14 13  1  0  0  0  0
 15 16  1  0  0  0  0
 15 14  2  0  0  0  0
 16 23  2  0  0  0  0
 17 16  1  0  0  0  0
 17 19  1  0  0  0  0
 18 17  2  0  0  0  0
 19 20  2  0  0  0  0
 20 22  1  0  0  0  0
 20 21  1  0  0  0  0
 23 13  1  0  0  0  0
 23 22  1  0  0  0  0
 24 25  2  6  0  0  0
 24  9  1  0  0  0  0
 24 26  1  0  0  0  0
 27 28  1  0  0  0  0
 27 24  1  0  0  0  0
 29 30  1  6  0  0  0
 29 28  1  0  0  0  0
 31 32  1  1  0  0  0
 31 29  1  0  0  0  0
 33 34  1  1  0  0  0
 33 35  1  0  0  0  0
 33 31  1  0  0  0  0
 35 36  1  6  0  0  0
 35 30  1  0  0  0  0
 36 37  1  0  0  0  0
 38 37  2  0  0  0  0
 39 38  1  0  0  0  0
 40 41  2  0  0  0  0
 40 39  1  0  0  0  0
 42 40  1  0  0  0  0
 43 42  2  0  0  0  0
 43 45  1  0  0  0  0
 44 43  1  0  0  0  0
 45 46  1  0  0  0  0
 46 39  2  0  0  0  0
 46 36  1  0  0  0  0
M  END
>  <CHROM.1>
-14.29952324,19.08491083,157.19942390,43.66465630,144.14748697,-0.66661775
-0.19192863,0.98381730

>  <Name>
lig.pdb

>  <RI>
0

>  <Rbt.Current_Directory>
/home/itssahil/PROJECTS/Mol_Feturizer/New_Systems/rnas/4yb0

>  <Rbt.Executable>
rbdock ($Id: //depot/dev/client3/rdock/2013.1/src/exe/rbdock.cxx#4 $)

>  <Rbt.Library>
libRbt.so (2013.1, Build901 2013/11/27)

>  <Rbt.Parameter_File>
/export/apps/rDock/src/rDock_2013.1_src/data/scripts/dock_solv.prm

>  <Rbt.Receptor>
prm/pocket_docking_2.prm

>  <SCORE>
-48.2666

>  <SCORE.INTER>
-48.4558

>  <SCORE.INTER.CONST>
1

>  <SCORE.INTER.POLAR>
0

>  <SCORE.INTER.ROT>
2

>  <SCORE.INTER.SOLV>
30.6452

>  <SCORE.INTER.VDW>
-47.4523

>  <SCORE.INTER.norm>
-1.05339

>  <SCORE.INTRA>
0.175108

>  <SCORE.INTRA.DIHEDRAL>
0.138689

>  <SCORE.INTRA.DIHEDRAL.0>
4.74153

>  <SCORE.INTRA.POLAR>
0

>  <SCORE.INTRA.POLAR.0>
0

>  <SCORE.INTRA.REPUL>
0

>  <SCORE.INTRA.REPUL.0>
0

>  <SCORE.INTRA.SOLV>
0.191516

>  <SCORE.INTRA.SOLV.lig_0>
-60.4375

>  <SCORE.INTRA.VDW>
0.0100055

>  <SCORE.INTRA.VDW.0>
-1.83689

>  <SCORE.INTRA.norm>
0.0038067

>  <SCORE.RESTR>
0.0140482

>  <SCORE.RESTR.CAVITY>
0.0140482

>  <SCORE.RESTR.norm>
0.000305396

>  <SCORE.SYSTEM>
0

>  <SCORE.SYSTEM.CONST>
0

>  <SCORE.SYSTEM.DIHEDRAL>
0

>  <SCORE.SYSTEM.SOLV>
0

>  <SCORE.SYSTEM.norm>
0

>  <SCORE.heavy>
46

>  <SCORE.norm>
-1.04927

>  <RMSD>
0.464

$$$$
lig.pdb
 OpenBabel11021811523D
libRbt.so/2013.1/901 2013/11/27
 46 52  0  0  0  0  0  0  0  0999 V2000
  159.6522   46.2341  143.4356 P   0  0  2  0  0  0  0  0  0  0  0  0
  160.2944   47.5740  143.7218 O   0  0  0  0  0  0  0  0  0  0  0  0
  159.1563   46.0066  142.0309 O   0  0  0  0  0  0  0  0  0  0  0  0
  158.4426   45.9367  144.4522 O   0  0  0  0  0  0  0  0  0  0  0  0
  158.2050   46.7591  145.5872 C   0  0  0  0  0  0  0  0  0  0  0  0
  157.2845   46.0450  146.5632 C   0  0  1  0  0  0  0  0  0  0  0  0
  155.9861   46.6067  146.4340 O   0  0  0  0  0  0  0  0  0  0  0  0
  157.1241   44.5463  146.3422 C   0  0  1  0  0  0  0  0  0  0  0  0
  157.8856   43.8366  147.3081 O   0  0  0  0  0  0  0  0  0  0  0  0
  155.6591   44.3028  146.6279 C   0  0  1  0  0  0  0  0  0  0  0  0
  155.4837   44.0056  148.0146 O   0  0  0  0  0  0  0  0  0  0  0  0
  154.9736   45.6139  146.3736 C   0  0  2  0  0  0  0  0  0  0  0  0
  154.3987   45.6056  145.0075 N   0  0  0  0  0  0  0  0  0  0  0  0
  155.0155   46.0415  143.8954 C   0  0  0  0  0  0  0  0  0  0  0  0
  154.2064   45.9072  142.8171 N   0  0  0  0  0  0  0  0  0  0  0  0
  153.0431   45.3757  143.2329 C   0  0  0  0  0  0  0  0  0  0  0  0
  151.7624   44.9751  142.6041 C   0  0  0  0  0  0  0  0  0  0  0  0
  151.5894   45.1244  141.3705 O   0  0  0  0  0  0  0  0  0  0  0  0
  150.8088   44.4566  143.3968 N   0  0  0  0  0  0  0  0  0  0  0  0
  150.9988   44.2999  144.7205 C   0  0  0  0  0  0  0  0  0  0  0  0
  150.0060   43.7684  145.4683 N   0  0  0  0  0  0  0  0  0  0  0  0
  152.1412   44.6443  145.3572 N   0  0  0  0  0  0  0  0  0  0  0  0
  153.1797   45.1780  144.6793 C   0  0  0  0  0  0  0  0  0  0  0  0
  158.1758   42.2416  147.2187 P   0  0  2  0  0  0  0  0  0  0  0  0
  156.8774   41.5151  146.9646 O   0  0  0  0  0  0  0  0  0  0  0  0
  159.0362   41.9033  148.4216 O   0  0  0  0  0  0  0  0  0  0  0  0
  159.0657   42.1265  145.8754 O   0  0  0  0  0  0  0  0  0  0  0  0
  160.4586   42.4346  145.9112 C   0  0  0  0  0  0  0  0  0  0  0  0
  161.0469   42.7277  144.5275 C   0  0  1  0  0  0  0  0  0  0  0  0
  161.1634   41.5060  143.7950 O   0  0  0  0  0  0  0  0  0  0  0  0
  160.2263   43.6838  143.6647 C   0  0  1  0  0  0  0  0  0  0  0  0
  160.6730   45.0342  143.7786 O   0  0  0  0  0  0  0  0  0  0  0  0
  160.4557   43.1363  142.2685 C   0  0  1  0  0  0  0  0  0  0  0  0
  161.6419   43.6910  141.6930 O   0  0  0  0  0  0  0  0  0  0  0  0
  160.6917   41.6517  142.4528 C   0  0  2  0  0  0  0  0  0  0  0  0
  159.4052   40.9245  142.3172 N   0  0  0  0  0  0  0  0  0  0  0  0
  158.8884   40.0664  143.2190 C   0  0  0  0  0  0  0  0  0  0  0  0
  157.6867   39.5686  142.8150 N   0  0  0  0  0  0  0  0  0  0  0  0
  157.4101   40.1214  141.6233 C   0  0  0  0  0  0  0  0  0  0  0  0
  156.3109   40.0283  140.6289 C   0  0  0  0  0  0  0  0  0  0  0  0
  155.3043   39.3097  140.8094 O   0  0  0  0  0  0  0  0  0  0  0  0
  156.4166   40.7678  139.5236 N   0  0  0  0  0  0  0  0  0  0  0  0
  157.4738   41.5595  139.2862 C   0  0  0  0  0  0  0  0  0  0  0  0
  157.4832   42.2487  138.1355 N   0  0  0  0  0  0  0  0  0  0  0  0
  158.5175   41.6911  140.1380 N   0  0  0  0  0  0  0  0  0  0  0  0
  158.5453   41.0096  141.3025 C   0  0  0  0  0  0  0  0  0  0  0  0
  1  3  2  6  0  0  0
  1 32  1  0  0  0  0
  1  2  1  0  0  0  0
  1  4  1  0  0  0  0
  4  5  1  0  0  0  0
  6  5  1  6  0  0  0
  7  6  1  0  0  0  0
  8  6  1  0  0  0  0
  8 10  1  0  0  0  0
  8  9  1  1  0  0  0
 10 11  1  1  0  0  0
 12 13  1  6  0  0  0
 12  7  1  0  0  0  0
 12 10  1  0  0  0  0
 14 13  1  0  0  0  0
 15 16  1  0  0  0  0
 15 14  2  0  0  0  0
 16 23  2  0  0  0  0
 17 16  1  0  0  0  0
 17 19  1  0  0  0  0
 18 17  2  0  0  0  0
 19 20  2  0  0  0  0
 20 22  1  0  0  0  0
 20 21  1  0  0  0  0
 23 13  1  0  0  0  0
 23 22  1  0  0  0  0
 24 25  2  6  0  0  0
 24  9  1  0  0  0  0
 24 26  1  0  0  0  0
 27 28  1  0  0  0  0
 27 24  1  0  0  0  0
 29 30  1  6  0  0  0
 29 28  1  0  0  0  0
 31 32  1  6  0  0  0
 31 29  1  0  0  0  0
 33 34  1  1  0  0  0
 33 35  1  0  0  0  0
 33 31  1  0  0  0  0
 35 36  1  1  0  0  0
 35 30  1  0  0  0  0
 36 37  1  0  0  0  0
 38 37  2  0  0  0  0
 39 38  1  0  0  0  0
 40 41  2  0  0  0  0
 40 39  1  0  0  0  0
 42 40  1  0  0  0  0
 43 42  2  0  0  0  0
 43 45  1  0  0  0  0
 44 43  1  0  0  0  0
 45 46  1  0  0  0  0
 46 39  2  0  0  0  0
 46 36  1  0  0  0  0
M  END
>  <CHROM.1>
23.66398473,-11.37300119,157.13656067,43.58023432,143.95533035,-0.36646489
-0.16386691,1.01035089

>  <Name>
lig.pdb

>  <RI>
0

>  <Rbt.Current_Directory>
/home/itssahil/PROJECTS/Mol_Feturizer/New_Systems/rnas/4yb0

>  <Rbt.Executable>
rbdock ($Id: //depot/dev/client3/rdock/2013.1/src/exe/rbdock.cxx#4 $)

>  <Rbt.Library>
libRbt.so (2013.1, Build901 2013/11/27)

>  <Rbt.Parameter_File>
/export/apps/rDock/src/rDock_2013.1_src/data/scripts/dock_solv.prm

>  <Rbt.Receptor>
prm/pocket_docking_2.prm

>  <SCORE>
-53.7507

>  <SCORE.INTER>
-53.6108

>  <SCORE.INTER.CONST>
1

>  <SCORE.INTER.POLAR>
0

>  <SCORE.INTER.ROT>
2

>  <SCORE.INTER.SOLV>
31.3222

>  <SCORE.INTER.VDW>
-51.1146

>  <SCORE.INTER.norm>
-1.16545

>  <SCORE.INTRA>
-0.139843

>  <SCORE.INTRA.DIHEDRAL>
-0.0200938

>  <SCORE.INTRA.DIHEDRAL.0>
4.74153

>  <SCORE.INTRA.POLAR>
0

>  <SCORE.INTRA.POLAR.0>
0

>  <SCORE.INTRA.REPUL>
0

>  <SCORE.INTRA.REPUL.0>
0

>  <SCORE.INTRA.SOLV>
0.00434585

>  <SCORE.INTRA.SOLV.lig_0>
-60.4375

>  <SCORE.INTRA.VDW>
-0.131969

>  <SCORE.INTRA.VDW.0>
-1.83689

>  <SCORE.INTRA.norm>
-0.00304007

>  <SCORE.RESTR>
0

>  <SCORE.RESTR.CAVITY>
0

>  <SCORE.RESTR.norm>
0

>  <SCORE.SYSTEM>
0

>  <SCORE.SYSTEM.CONST>
0

>  <SCORE.SYSTEM.DIHEDRAL>
0

>  <SCORE.SYSTEM.SOLV>
0

>  <SCORE.SYSTEM.norm>
0

>  <SCORE.heavy>
46

>  <SCORE.norm>
-1.16849

>  <RMSD>
0.464

$$$$
lig.pdb
 OpenBabel11021811523D
libRbt.so/2013.1/901 2013/11/27
 46 52  0  0  0  0  0  0  0  0999 V2000
  159.6575   46.2380  143.4414 P   0  0  2  0  0  0  0  0  0  0  0  0
  160.3006   47.5773  143.7282 O   0  0  0  0  0  0  0  0  0  0  0  0
  159.1656   46.0098  142.0353 O   0  0  0  0  0  0  0  0  0  0  0  0
  158.4443   45.9432  144.4545 O   0  0  0  0  0  0  0  0  0  0  0  0
  158.2044   46.7670  145.5880 C   0  0  0  0  0  0  0  0  0  0  0  0
  157.2799   46.0551  146.5618 C   0  0  1  0  0  0  0  0  0  0  0  0
  155.9827   46.6184  146.4281 O   0  0  0  0  0  0  0  0  0  0  0  0
  157.1182   44.5564  146.3418 C   0  0  1  0  0  0  0  0  0  0  0  0
  157.8758   43.8466  147.3107 O   0  0  0  0  0  0  0  0  0  0  0  0
  155.6521   44.3152  146.6233 C   0  0  1  0  0  0  0  0  0  0  0  0
  155.4720   44.0195  148.0097 O   0  0  0  0  0  0  0  0  0  0  0  0
  154.9691   45.6268  146.3656 C   0  0  2  0  0  0  0  0  0  0  0  0
  154.3983   45.6181  144.9978 N   0  0  0  0  0  0  0  0  0  0  0  0
  155.0160   46.0595  143.8883 C   0  0  0  0  0  0  0  0  0  0  0  0
  154.2110   45.9229  142.8074 N   0  0  0  0  0  0  0  0  0  0  0  0
  153.0493   45.3841  143.2186 C   0  0  0  0  0  0  0  0  0  0  0  0
  151.7728   44.9776  142.5852 C   0  0  0  0  0  0  0  0  0  0  0  0
  151.6027   45.1282  141.3514 O   0  0  0  0  0  0  0  0  0  0  0  0
  150.8197   44.4522  143.3740 N   0  0  0  0  0  0  0  0  0  0  0  0
  151.0067   44.2940  144.6980 C   0  0  0  0  0  0  0  0  0  0  0  0
  150.0146   43.7555  145.4417 N   0  0  0  0  0  0  0  0  0  0  0  0
  152.1451   44.6435  145.3388 N   0  0  0  0  0  0  0  0  0  0  0  0
  153.1827   45.1843  144.6650 C   0  0  0  0  0  0  0  0  0  0  0  0
  158.1641   42.2511  147.2237 P   0  0  2  0  0  0  0  0  0  0  0  0
  156.8655   41.5261  146.9663 O   0  0  0  0  0  0  0  0  0  0  0  0
  159.0204   41.9129  148.4296 O   0  0  0  0  0  0  0  0  0  0  0  0
  159.0580   42.1336  145.8833 O   0  0  0  0  0  0  0  0  0  0  0  0
  160.4512   42.4398  145.9230 C   0  0  0  0  0  0  0  0  0  0  0  0
  161.0441   42.7308  144.5408 C   0  0  1  0  0  0  0  0  0  0  0  0
  161.1612   41.5083  143.8098 O   0  0  0  0  0  0  0  0  0  0  0  0
  160.2274   43.6872  143.6747 C   0  0  1  0  0  0  0  0  0  0  0  0
  160.6756   45.0371  143.7886 O   0  0  0  0  0  0  0  0  0  0  0  0
  160.4604   43.1380  142.2796 C   0  0  1  0  0  0  0  0  0  0  0  0
  161.6491   43.6906  141.7073 O   0  0  0  0  0  0  0  0  0  0  0  0
  160.6938   41.6533  142.4661 C   0  0  2  0  0  0  0  0  0  0  0  0
  159.4068   40.9277  142.3273 N   0  0  0  0  0  0  0  0  0  0  0  0
  158.8856   40.0720  143.2288 C   0  0  0  0  0  0  0  0  0  0  0  0
  157.6845   39.5752  142.8214 N   0  0  0  0  0  0  0  0  0  0  0  0
  157.4130   40.1261  141.6277 C   0  0  0  0  0  0  0  0  0  0  0  0
  156.3172   40.0328  140.6296 C   0  0  0  0  0  0  0  0  0  0  0  0
  155.3089   39.3160  140.8078 O   0  0  0  0  0  0  0  0  0  0  0  0
  156.4279   40.7701  139.5234 N   0  0  0  0  0  0  0  0  0  0  0  0
  157.4870   41.5599  139.2883 C   0  0  0  0  0  0  0  0  0  0  0  0
  157.5016   42.2469  138.1363 N   0  0  0  0  0  0  0  0  0  0  0  0
  158.5279   41.6915  140.1436 N   0  0  0  0  0  0  0  0  0  0  0  0
  158.5506   41.0121  141.3094 C   0  0  0  0  0  0  0  0  0  0  0  0
  1  3  2  6  0  0  0
  1 32  1  0  0  0  0
  1  2  1  0  0  0  0
  1  4  1  0  0  0  0
  4  5  1  0  0  0  0
  6  5  1  6  0  0  0
  7  6  1  0  0  0  0
  8  6  1  0  0  0  0
  8 10  1  0  0  0  0
  8  9  1  1  0  0  0
 10 11  1  1  0  0  0
 12 13  1  6  0  0  0
 12  7  1  0  0  0  0
 12 10  1  0  0  0  0
 14 13  1  0  0  0  0
 15 16  1  0  0  0  0
 15 14  2  0  0  0  0
 16 23  2  0  0  0  0
 17 16  1  0  0  0  0
 17 19  1  0  0  0  0
 18 17  2  0  0  0  0
 19 20  2  0  0  0  0
 20 22  1  0  0  0  0
 20 21  1  0  0  0  0
 23 13  1  0  0  0  0
 23 22  1  0  0  0  0
 24 25  2  6  0  0  0
 24  9  1  0  0  0  0
 24 26  1  0  0  0  0
 27 28  1  0  0  0  0
 27 24  1  0  0  0  0
 29 30  1  6  0  0  0
 29 28  1  0  0  0  0
 31 32  1  6  0  0  0
 31 29  1  0  0  0  0
 33 34  1  1  0  0  0
 33 35  1  0  0  0  0
 33 31  1  0  0  0  0
 35 36  1  1  0  0  0
 35 30  1  0  0  0  0
 36 37  1  0  0  0  0
 38 37  2  0  0  0  0
 39 38  1  0  0  0  0
 40 41  2  0  0  0  0
 40 39  1  0  0  0  0
 42 40  1  0  0  0  0
 43 42  2  0  0  0  0
 43 45  1  0  0  0  0
 44 43  1  0  0  0  0
 45 46  1  0  0  0  0
 46 39  2  0  0  0  0
 46 36  1  0  0  0  0
M  END
>  <CHROM.1>
23.23483847,-11.31497074,157.13767311,43.58561624,143.95541263,-0.36402972
-0.16497578,1.00911705

>  <Name>
lig.pdb

>  <RI>
0

>  <Rbt.Current_Directory>
/home/itssahil/PROJECTS/Mol_Feturizer/New_Systems/rnas/4yb0

>  <Rbt.Executable>
rbdock ($Id: //depot/dev/client3/rdock/2013.1/src/exe/rbdock.cxx#4 $)

>  <Rbt.Library>
libRbt.so (2013.1, Build901 2013/11/27)

>  <Rbt.Parameter_File>
/export/apps/rDock/src/rDock_2013.1_src/data/scripts/dock_solv.prm

>  <Rbt.Receptor>
prm/pocket_docking_4.prm

>  <SCORE>
-53.6917

>  <SCORE.INTER>
-53.5549

>  <SCORE.INTER.CONST>
1

>  <SCORE.INTER.POLAR>
0

>  <SCORE.INTER.ROT>
2

>  <SCORE.INTER.SOLV>
31.2178

>  <SCORE.INTER.VDW>
-51.0425

>  <SCORE.INTER.norm>
-1.16424

>  <SCORE.INTRA>
-0.136822

>  <SCORE.INTRA.DIHEDRAL>
-0.019618

>  <SCORE.INTRA.DIHEDRAL.0>
4.74153

>  <SCORE.INTRA.POLAR>
0

>  <SCORE.INTRA.POLAR.0>
0

>  <SCORE.INTRA.REPUL>
0

>  <SCORE.INTRA.REPUL.0>
0

>  <SCORE.INTRA.SOLV>
0.00413015

>  <SCORE.INTRA.SOLV.lig_0>
-60.4375

>  <SCORE.INTRA.VDW>
-0.129078

>  <SCORE.INTRA.VDW.0>
-1.83689

>  <SCORE.INTRA.norm>
-0.0029744

>  <SCORE.RESTR>
0

>  <SCORE.RESTR.CAVITY>
0

>  <SCORE.RESTR.norm>
0

>  <SCORE.SYSTEM>
0

>  <SCORE.SYSTEM.CONST>
0

>  <SCORE.SYSTEM.DIHEDRAL>
0

>  <SCORE.SYSTEM.SOLV>
0

>  <SCORE.SYSTEM.norm>
0

>  <SCORE.heavy>
46

>  <SCORE.norm>
-1.16721

>  <RMSD>
0.464

$$$$
lig.pdb
 OpenBabel11021811523D
libRbt.so/2013.1/901 2013/11/27
 46 52  0  0  0  0  0  0  0  0999 V2000
  159.6623   46.2416  143.3782 P   0  0  2  0  0  0  0  0  0  0  0  0
  160.3024   47.5846  143.6541 O   0  0  0  0  0  0  0  0  0  0  0  0
  159.1576   46.0065  141.9778 O   0  0  0  0  0  0  0  0  0  0  0  0
  158.4605   45.9451  144.4042 O   0  0  0  0  0  0  0  0  0  0  0  0
  158.2281   46.7717  145.5372 C   0  0  0  0  0  0  0  0  0  0  0  0
  157.3164   46.0592  146.5225 C   0  0  1  0  0  0  0  0  0  0  0  0
  156.0155   46.6165  146.3997 O   0  0  0  0  0  0  0  0  0  0  0  0
  157.1590   44.5590  146.3092 C   0  0  1  0  0  0  0  0  0  0  0  0
  157.9292   43.8558  147.2729 O   0  0  0  0  0  0  0  0  0  0  0  0
  155.6967   44.3125  146.6059 C   0  0  1  0  0  0  0  0  0  0  0  0
  155.5316   44.0209  147.9950 O   0  0  0  0  0  0  0  0  0  0  0  0
  155.0056   45.6204  146.3505 C   0  0  2  0  0  0  0  0  0  0  0  0
  154.4214   45.6045  144.9884 N   0  0  0  0  0  0  0  0  0  0  0  0
  155.0313   46.0327  143.8694 C   0  0  0  0  0  0  0  0  0  0  0  0
  154.2148   45.8929  142.7975 N   0  0  0  0  0  0  0  0  0  0  0  0
  153.0536   45.3654  143.2244 C   0  0  0  0  0  0  0  0  0  0  0  0
  151.7682   44.9626  142.6068 C   0  0  0  0  0  0  0  0  0  0  0  0
  151.5871   45.1044  141.3735 O   0  0  0  0  0  0  0  0  0  0  0  0
  150.8193   44.4502  143.4091 N   0  0  0  0  0  0  0  0  0  0  0  0
  151.0181   44.3015  144.7324 C   0  0  0  0  0  0  0  0  0  0  0  0
  150.0297   43.7758  145.4901 N   0  0  0  0  0  0  0  0  0  0  0  0
  152.1651   44.6482  145.3592 N   0  0  0  0  0  0  0  0  0  0  0  0
  153.1997   45.1765  144.6710 C   0  0  0  0  0  0  0  0  0  0  0  0
  158.2235   42.2614  147.1885 P   0  0  2  0  0  0  0  0  0  0  0  0
  156.9255   41.5299  146.9464 O   0  0  0  0  0  0  0  0  0  0  0  0
  159.0930   41.9309  148.3870 O   0  0  0  0  0  0  0  0  0  0  0  0
  159.1046   42.1431  145.8398 O   0  0  0  0  0  0  0  0  0  0  0  0
  160.4968   42.4554  145.8647 C   0  0  0  0  0  0  0  0  0  0  0  0
  161.0748   42.7442  144.4758 C   0  0  1  0  0  0  0  0  0  0  0  0
  161.1900   41.5196  143.7478 O   0  0  0  0  0  0  0  0  0  0  0  0
  160.2455   43.6941  143.6145 C   0  0  1  0  0  0  0  0  0  0  0  0
  160.6890   45.0463  143.7194 O   0  0  0  0  0  0  0  0  0  0  0  0
  160.4671   43.1411  142.2191 C   0  0  1  0  0  0  0  0  0  0  0  0
  161.6477   43.6968  141.6332 O   0  0  0  0  0  0  0  0  0  0  0  0
  160.7087   41.6581  142.4082 C   0  0  2  0  0  0  0  0  0  0  0  0
  159.4236   40.9265  142.2846 N   0  0  0  0  0  0  0  0  0  0  0  0
  158.9176   40.0674  143.1915 C   0  0  0  0  0  0  0  0  0  0  0  0
  157.7140   39.5653  142.7986 N   0  0  0  0  0  0  0  0  0  0  0  0
  157.4251   40.1161  141.6088 C   0  0  0  0  0  0  0  0  0  0  0  0
  156.3175   40.0185  140.6243 C   0  0  0  0  0  0  0  0  0  0  0  0
  155.3149   39.2968  140.8141 O   0  0  0  0  0  0  0  0  0  0  0  0
  156.4111   40.7575  139.5175 N   0  0  0  0  0  0  0  0  0  0  0  0
  157.4635   41.5525  139.2702 C   0  0  0  0  0  0  0  0  0  0  0  0
  157.4605   42.2407  138.1188 N   0  0  0  0  0  0  0  0  0  0  0  0
  158.5142   41.6882  140.1127 N   0  0  0  0  0  0  0  0  0  0  0  0
  158.5545   41.0078  141.2774 C   0  0  0  0  0  0  0  0  0  0  0  0
  1  3  2  6  0  0  0
  1 32  1  0  0  0  0
  1  2  1  0  0  0  0
  1  4  1  0  0  0  0
  4  5  1  0  0  0  0
  6  5  1  6  0  0  0
  7  6  1  0  0  0  0
  8  6  1  0  0  0  0
  8 10  1  0  0  0  0
  8  9  1  1  0  0  0
 10 11  1  1  0  0  0
 12 13  1  6  0  0  0
 12  7  1  0  0  0  0
 12 10  1  0  0  0  0
 14 13  1  0  0  0  0
 15 16  1  0  0  0  0
 15 14  2  0  0  0  0
 16 23  2  0  0  0  0
 17 16  1  0  0  0  0
 17 19  1  0  0  0  0
 18 17  2  0  0  0  0
 19 20  2  0  0  0  0
 20 22  1  0  0  0  0
 20 21  1  0  0  0  0
 23 13  1  0  0  0  0
 23 22  1  0  0  0  0
 24 25  2  6  0  0  0
 24  9  1  0  0  0  0
 24 26  1  0  0  0  0
 27 28  1  0  0  0  0
 27 24  1  0  0  0  0
 29 30  1  6  0  0  0
 29 28  1  0  0  0  0
 31 32  1  6  0  0  0
 31 29  1  0  0  0  0
 33 34  1  1  0  0  0
 33 35  1  0  0  0  0
 33 31  1  0  0  0  0
 35 36  1  1  0  0  0
 35 30  1  0  0  0  0
 36 37  1  0  0  0  0
 38 37  2  0  0  0  0
 39 38  1  0  0  0  0
 40 41  2  0  0  0  0
 40 39  1  0  0  0  0
 42 40  1  0  0  0  0
 43 42  2  0  0  0  0
 43 45  1  0  0  0  0
 44 43  1  0  0  0  0
 45 46  1  0  0  0  0
 46 39  2  0  0  0  0
 46 36  1  0  0  0  0
M  END
>  <CHROM.1>
23.92789258,-11.60618311,157.15703537,43.58490757,143.92727663,-0.36927304
-0.15890579,1.00604042

>  <Name>
lig.pdb

>  <RI>
0

>  <Rbt.Current_Directory>
/home/itssahil/PROJECTS/Mol_Feturizer/New_Systems/rnas/4yb0

>  <Rbt.Executable>
rbdock ($Id: //depot/dev/client3/rdock/2013.1/src/exe/rbdock.cxx#4 $)

>  <Rbt.Library>
libRbt.so (2013.1, Build901 2013/11/27)

>  <Rbt.Parameter_File>
/export/apps/rDock/src/rDock_2013.1_src/data/scripts/dock_solv.prm

>  <Rbt.Receptor>
prm/pocket_docking_6.prm

>  <SCORE>
-53.6505

>  <SCORE.INTER>
-53.5095

>  <SCORE.INTER.CONST>
1

>  <SCORE.INTER.POLAR>
0

>  <SCORE.INTER.ROT>
2

>  <SCORE.INTER.SOLV>
31.3312

>  <SCORE.INTER.VDW>
-51.0501

>  <SCORE.INTER.norm>
-1.16325

>  <SCORE.INTRA>
-0.140926

>  <SCORE.INTRA.DIHEDRAL>
-0.0208782

>  <SCORE.INTRA.DIHEDRAL.0>
4.74153

>  <SCORE.INTRA.POLAR>
0

>  <SCORE.INTRA.POLAR.0>
0

>  <SCORE.INTRA.REPUL>
0

>  <SCORE.INTRA.REPUL.0>
0

>  <SCORE.INTRA.SOLV>
0.00360289

>  <SCORE.INTRA.SOLV.lig_0>
-60.4375

>  <SCORE.INTRA.VDW>
-0.132288

>  <SCORE.INTRA.VDW.0>
-1.83689

>  <SCORE.INTRA.norm>
-0.00306361

>  <SCORE.RESTR>
0

>  <SCORE.RESTR.CAVITY>
0

>  <SCORE.RESTR.norm>
0

>  <SCORE.SYSTEM>
0

>  <SCORE.SYSTEM.CONST>
0

>  <SCORE.SYSTEM.DIHEDRAL>
0

>  <SCORE.SYSTEM.SOLV>
0

>  <SCORE.SYSTEM.norm>
0

>  <SCORE.heavy>
46

>  <SCORE.norm>
-1.16631

>  <RMSD>
0.464

$$$$
lig.pdb
 OpenBabel11021811523D
libRbt.so/2013.1/901 2013/11/27
 46 52  0  0  0  0  0  0  0  0999 V2000
  159.6626   46.2639  143.4890 P   0  0  2  0  0  0  0  0  0  0  0  0
  160.3041   47.5995  143.7959 O   0  0  0  0  0  0  0  0  0  0  0  0
  159.1930   46.0471  142.0735 O   0  0  0  0  0  0  0  0  0  0  0  0
  158.4325   45.9647  144.4801 O   0  0  0  0  0  0  0  0  0  0  0  0
  158.1761   46.7809  145.6156 C   0  0  0  0  0  0  0  0  0  0  0  0
  157.2343   46.0643  146.5690 C   0  0  1  0  0  0  0  0  0  0  0  0
  155.9407   46.6317  146.4184 O   0  0  0  0  0  0  0  0  0  0  0  0
  157.0726   44.5675  146.3356 C   0  0  1  0  0  0  0  0  0  0  0  0
  157.8127   43.8489  147.3114 O   0  0  0  0  0  0  0  0  0  0  0  0
  155.6015   44.3279  146.5914 C   0  0  1  0  0  0  0  0  0  0  0  0
  155.3983   44.0227  147.9726 O   0  0  0  0  0  0  0  0  0  0  0  0
  154.9259   45.6431  146.3322 C   0  0  2  0  0  0  0  0  0  0  0  0
  154.3774   45.6456  144.9553 N   0  0  0  0  0  0  0  0  0  0  0  0
  154.9941   46.1388  143.8673 C   0  0  0  0  0  0  0  0  0  0  0  0
  154.2122   45.9971  142.7701 N   0  0  0  0  0  0  0  0  0  0  0  0
  153.0669   45.4024  143.1488 C   0  0  0  0  0  0  0  0  0  0  0  0
  151.8178   44.9612  142.4846 C   0  0  0  0  0  0  0  0  0  0  0  0
  151.6611   45.1356  141.2521 O   0  0  0  0  0  0  0  0  0  0  0  0
  150.8745   44.3789  143.2445 N   0  0  0  0  0  0  0  0  0  0  0  0
  151.0469   44.1954  144.5672 C   0  0  0  0  0  0  0  0  0  0  0  0
  150.0658   43.5994  145.2810 N   0  0  0  0  0  0  0  0  0  0  0  0
  152.1602   44.5739  145.2351 N   0  0  0  0  0  0  0  0  0  0  0  0
  153.1856   45.1722  144.5920 C   0  0  0  0  0  0  0  0  0  0  0  0
  158.0987   42.2535  147.2175 P   0  0  2  0  0  0  0  0  0  0  0  0
  156.8028   41.5335  146.9338 O   0  0  0  0  0  0  0  0  0  0  0  0
  158.9345   41.9044  148.4346 O   0  0  0  0  0  0  0  0  0  0  0  0
  159.0139   42.1434  145.8910 O   0  0  0  0  0  0  0  0  0  0  0  0
  160.4070   42.4460  145.9555 C   0  0  0  0  0  0  0  0  0  0  0  0
  161.0230   42.7455  144.5853 C   0  0  1  0  0  0  0  0  0  0  0  0
  161.1491   41.5280  143.8474 O   0  0  0  0  0  0  0  0  0  0  0  0
  160.2227   43.7101  143.7130 C   0  0  1  0  0  0  0  0  0  0  0  0
  160.6721   45.0581  143.8439 O   0  0  0  0  0  0  0  0  0  0  0  0
  160.4771   43.1704  142.3179 C   0  0  1  0  0  0  0  0  0  0  0  0
  161.6761   43.7242  141.7690 O   0  0  0  0  0  0  0  0  0  0  0  0
  160.7039   41.6839  142.4974 C   0  0  2  0  0  0  0  0  0  0  0  0
  159.4177   40.9624  142.3324 N   0  0  0  0  0  0  0  0  0  0  0  0
  158.9044   40.0633  143.1953 C   0  0  0  0  0  0  0  0  0  0  0  0
  157.7018   39.5834  142.7725 N   0  0  0  0  0  0  0  0  0  0  0  0
  157.4210   40.1901  141.6083 C   0  0  0  0  0  0  0  0  0  0  0  0
  156.3188   40.1418  140.6141 C   0  0  0  0  0  0  0  0  0  0  0  0
  155.3134   39.4147  140.7644 O   0  0  0  0  0  0  0  0  0  0  0  0
  156.4206   40.9314  139.5437 N   0  0  0  0  0  0  0  0  0  0  0  0
  157.4764   41.7343  139.3397 C   0  0  0  0  0  0  0  0  0  0  0  0
  157.4817   42.4756  138.2218 N   0  0  0  0  0  0  0  0  0  0  0  0
  158.5226   41.8275  140.1935 N   0  0  0  0  0  0  0  0  0  0  0  0
  158.5546   41.0932  141.3253 C   0  0  0  0  0  0  0  0  0  0  0  0
  1  3  2  6  0  0  0
  1 32  1  0  0  0  0
  1  2  1  0  0  0  0
  1  4  1  0  0  0  0
  4  5  1  0  0  0  0
  6  5  1  6  0  0  0
  7  6  1  0  0  0  0
  8  6  1  0  0  0  0
  8 10  1  0  0  0  0
  8  9  1  1  0  0  0
 10 11  1  1  0  0  0
 12 13  1  6  0  0  0
 12  7  1  0  0  0  0
 12 10  1  0  0  0  0
 14 13  1  0  0  0  0
 15 16  1  0  0  0  0
 15 14  2  0  0  0  0
 16 23  2  0  0  0  0
 17 16  1  0  0  0  0
 17 19  1  0  0  0  0
 18 17  2  0  0  0  0
 19 20  2  0  0  0  0
 20 22  1  0  0  0  0
 20 21  1  0  0  0  0
 23 13  1  0  0  0  0
 23 22  1  0  0  0  0
 24 25  2  6  0  0  0
 24  9  1  0  0  0  0
 24 26  1  0  0  0  0
 27 28  1  0  0  0  0
 27 24  1  0  0  0  0
 29 30  1  6  0  0  0
 29 28  1  0  0  0  0
 31 32  1  6  0  0  0
 31 29  1  0  0  0  0
 33 34  1  1  0  0  0
 33 35  1  0  0  0  0
 33 31  1  0  0  0  0
 35 36  1  1  0  0  0
 35 30  1  0  0  0  0
 36 37  1  0  0  0  0
 38 37  2  0  0  0  0
 39 38  1  0  0  0  0
 40 41  2  0  0  0  0
 40 39  1  0  0  0  0
 42 40  1  0  0  0  0
 43 42  2  0  0  0  0
 43 45  1  0  0  0  0
 44 43  1  0  0  0  0
 45 46  1  0  0  0  0
 46 39  2  0  0  0  0
 46 36  1  0  0  0  0
M  END
>  <CHROM.1>
20.60875904,-13.99685166,157.12723106,43.61161894,143.94752810,-0.32101804
-0.16793513,1.02006612

>  <Name>
lig.pdb

>  <RI>
0

>  <Rbt.Current_Directory>
/home/itssahil/PROJECTS/Mol_Feturizer/New_Systems/rnas/4yb0

>  <Rbt.Executable>
rbdock ($Id: //depot/dev/client3/rdock/2013.1/src/exe/rbdock.cxx#4 $)

>  <Rbt.Library>
libRbt.so (2013.1, Build901 2013/11/27)

>  <Rbt.Parameter_File>
/export/apps/rDock/src/rDock_2013.1_src/data/scripts/dock_solv.prm

>  <Rbt.Receptor>
prm/pocket_docking_7.prm

>  <SCORE>
-53.5288

>  <SCORE.INTER>
-53.444

>  <SCORE.INTER.CONST>
1

>  <SCORE.INTER.POLAR>
0

>  <SCORE.INTER.ROT>
2

>  <SCORE.INTER.SOLV>
30.7607

>  <SCORE.INTER.VDW>
-50.8163

>  <SCORE.INTER.norm>
-1.16183

>  <SCORE.INTRA>
-0.0848207

>  <SCORE.INTRA.DIHEDRAL>
-0.0236607

>  <SCORE.INTRA.DIHEDRAL.0>
4.74153

>  <SCORE.INTRA.POLAR>
0

>  <SCORE.INTRA.POLAR.0>
0

>  <SCORE.INTRA.REPUL>
0

>  <SCORE.INTRA.REPUL.0>
0

>  <SCORE.INTRA.SOLV>
-0.00746907

>  <SCORE.INTRA.SOLV.lig_0>
-60.4375

>  <SCORE.INTRA.VDW>
-0.0692558

>  <SCORE.INTRA.VDW.0>
-1.83689

>  <SCORE.INTRA.norm>
-0.00184393

>  <SCORE.RESTR>
0

>  <SCORE.RESTR.CAVITY>
0

>  <SCORE.RESTR.norm>
0

>  <SCORE.SYSTEM>
0

>  <SCORE.SYSTEM.CONST>
0

>  <SCORE.SYSTEM.DIHEDRAL>
0

>  <SCORE.SYSTEM.SOLV>
0

>  <SCORE.SYSTEM.norm>
0

>  <SCORE.heavy>
46

>  <SCORE.norm>
-1.16367

>  <RMSD>
0.465

$$$$
lig.pdb
 OpenBabel11021811523D
libRbt.so/2013.1/901 2013/11/27
 46 52  0  0  0  0  0  0  0  0999 V2000
  159.6598   46.2407  143.4285 P   0  0  2  0  0  0  0  0  0  0  0  0
  160.3030   47.5803  143.7139 O   0  0  0  0  0  0  0  0  0  0  0  0
  159.1671   46.0114  142.0229 O   0  0  0  0  0  0  0  0  0  0  0  0
  158.4473   45.9466  144.4426 O   0  0  0  0  0  0  0  0  0  0  0  0
  158.2080   46.7713  145.5756 C   0  0  0  0  0  0  0  0  0  0  0  0
  157.2842   46.0601  146.5505 C   0  0  1  0  0  0  0  0  0  0  0  0
  155.9869   46.6231  146.4172 O   0  0  0  0  0  0  0  0  0  0  0  0
  157.1225   44.5611  146.3318 C   0  0  1  0  0  0  0  0  0  0  0  0
  157.8808   43.8522  147.3008 O   0  0  0  0  0  0  0  0  0  0  0  0
  155.6565   44.3200  146.6143 C   0  0  1  0  0  0  0  0  0  0  0  0
  155.4773   44.0255  148.0011 O   0  0  0  0  0  0  0  0  0  0  0  0
  154.9733   45.6314  146.3560 C   0  0  2  0  0  0  0  0  0  0  0  0
  154.4017   45.6215  144.9886 N   0  0  0  0  0  0  0  0  0  0  0  0
  155.0187   46.0622  143.8784 C   0  0  0  0  0  0  0  0  0  0  0  0
  154.2130   45.9246  142.7980 N   0  0  0  0  0  0  0  0  0  0  0  0
  153.0517   45.3860  143.2104 C   0  0  0  0  0  0  0  0  0  0  0  0
  151.7748   44.9788  142.5781 C   0  0  0  0  0  0  0  0  0  0  0  0
  151.6040   45.1285  141.3442 O   0  0  0  0  0  0  0  0  0  0  0  0
  150.8223   44.4540  143.3678 N   0  0  0  0  0  0  0  0  0  0  0  0
  151.0100   44.2969  144.6919 C   0  0  0  0  0  0  0  0  0  0  0  0
  150.0184   43.7588  145.4366 N   0  0  0  0  0  0  0  0  0  0  0  0
  152.1488   44.6470  145.3317 N   0  0  0  0  0  0  0  0  0  0  0  0
  153.1859   45.1874  144.6569 C   0  0  0  0  0  0  0  0  0  0  0  0
  158.1692   42.2567  147.2149 P   0  0  2  0  0  0  0  0  0  0  0  0
  156.8705   41.5314  146.9588 O   0  0  0  0  0  0  0  0  0  0  0  0
  159.0262   41.9195  148.4205 O   0  0  0  0  0  0  0  0  0  0  0  0
  159.0622   42.1382  145.8740 O   0  0  0  0  0  0  0  0  0  0  0  0
  160.4554   42.4446  145.9127 C   0  0  0  0  0  0  0  0  0  0  0  0
  161.0475   42.7346  144.5299 C   0  0  1  0  0  0  0  0  0  0  0  0
  161.1642   41.5114  143.7998 O   0  0  0  0  0  0  0  0  0  0  0  0
  160.2301   43.6902  143.6635 C   0  0  1  0  0  0  0  0  0  0  0  0
  160.6783   45.0402  143.7760 O   0  0  0  0  0  0  0  0  0  0  0  0
  160.4624   43.1399  142.2687 C   0  0  1  0  0  0  0  0  0  0  0  0
  161.6507   43.6921  141.6952 O   0  0  0  0  0  0  0  0  0  0  0  0
  160.6960   41.6554  142.4562 C   0  0  2  0  0  0  0  0  0  0  0  0
  159.4090   40.9295  142.3188 N   0  0  0  0  0  0  0  0  0  0  0  0
  158.8883   40.0747  143.2214 C   0  0  0  0  0  0  0  0  0  0  0  0
  157.6871   39.5774  142.8151 N   0  0  0  0  0  0  0  0  0  0  0  0
  157.4149   40.1271  141.6210 C   0  0  0  0  0  0  0  0  0  0  0  0
  156.3187   40.0327  140.6235 C   0  0  0  0  0  0  0  0  0  0  0  0
  155.3105   39.3160  140.8029 O   0  0  0  0  0  0  0  0  0  0  0  0
  156.4288   40.7689  139.5165 N   0  0  0  0  0  0  0  0  0  0  0  0
  157.4878   41.5585  139.2800 C   0  0  0  0  0  0  0  0  0  0  0  0
  157.5017   42.2444  138.1274 N   0  0  0  0  0  0  0  0  0  0  0  0
  158.5291   41.6911  140.1347 N   0  0  0  0  0  0  0  0  0  0  0  0
  158.5524   41.0128  141.3012 C   0  0  0  0  0  0  0  0  0  0  0  0
  1  3  2  6  0  0  0
  1 32  1  0  0  0  0
  1  2  1  0  0  0  0
  1  4  1  0  0  0  0
  4  5  1  0  0  0  0
  6  5  1  6  0  0  0
  7  6  1  0  0  0  0
  8  6  1  0  0  0  0
  8 10  1  0  0  0  0
  8  9  1  1  0  0  0
 10 11  1  1  0  0  0
 12 13  1  6  0  0  0
 12  7  1  0  0  0  0
 12 10  1  0  0  0  0
 14 13  1  0  0  0  0
 15 16  1  0  0  0  0
 15 14  2  0  0  0  0
 16 23  2  0  0  0  0
 17 16  1  0  0  0  0
 17 19  1  0  0  0  0
 18 17  2  0  0  0  0
 19 20  2  0  0  0  0
 20 22  1  0  0  0  0
 20 21  1  0  0  0  0
 23 13  1  0  0  0  0
 23 22  1  0  0  0  0
 24 25  2  6  0  0  0
 24  9  1  0  0  0  0
 24 26  1  0  0  0  0
 27 28  1  0  0  0  0
 27 24  1  0  0  0  0
 29 30  1  6  0  0  0
 29 28  1  0  0  0  0
 31 32  1  6  0  0  0
 31 29  1  0  0  0  0
 33 34  1  1  0  0  0
 33 35  1  0  0  0  0
 33 31  1  0  0  0  0
 35 36  1  1  0  0  0
 35 30  1  0  0  0  0
 36 37  1  0  0  0  0
 38 37  2  0  0  0  0
 39 38  1  0  0  0  0
 40 41  2  0  0  0  0
 40 39  1  0  0  0  0
 42 40  1  0  0  0  0
 43 42  2  0  0  0  0
 43 45  1  0  0  0  0
 44 43  1  0  0  0  0
 45 46  1  0  0  0  0
 46 39  2  0  0  0  0
 46 36  1  0  0  0  0
M  END
>  <CHROM.1>
23.23390999,-11.30053062,157.14066299,43.58844339,143.94612164,-0.36461792
-0.16455842,1.00821873

>  <Name>
lig.pdb

>  <RI>
0

>  <Rbt.Current_Directory>
/home/itssahil/PROJECTS/Mol_Feturizer/New_Systems/rnas/4yb0

>  <Rbt.Executable>
rbdock ($Id: //depot/dev/client3/rdock/2013.1/src/exe/rbdock.cxx#4 $)

>  <Rbt.Library>
libRbt.so (2013.1, Build901 2013/11/27)

>  <Rbt.Parameter_File>
/export/apps/rDock/src/rDock_2013.1_src/data/scripts/dock_solv.prm

>  <Rbt.Receptor>
prm/pocket_docking_2.prm

>  <SCORE>
-53.7018

>  <SCORE.INTER>
-53.5649

>  <SCORE.INTER.CONST>
1

>  <SCORE.INTER.POLAR>
0

>  <SCORE.INTER.ROT>
2

>  <SCORE.INTER.SOLV>
31.2377

>  <SCORE.INTER.VDW>
-51.0558

>  <SCORE.INTER.norm>
-1.16445

>  <SCORE.INTRA>
-0.13687

>  <SCORE.INTRA.DIHEDRAL>
-0.0195802

>  <SCORE.INTRA.DIHEDRAL.0>
4.74153

>  <SCORE.INTRA.POLAR>
0

>  <SCORE.INTRA.POLAR.0>
0

>  <SCORE.INTRA.REPUL>
0

>  <SCORE.INTRA.REPUL.0>
0

>  <SCORE.INTRA.SOLV>
0.00419117

>  <SCORE.INTRA.SOLV.lig_0>
-60.4375

>  <SCORE.INTRA.VDW>
-0.129175

>  <SCORE.INTRA.VDW.0>
-1.83689

>  <SCORE.INTRA.norm>
-0.00297543

>  <SCORE.RESTR>
0

>  <SCORE.RESTR.CAVITY>
0

>  <SCORE.RESTR.norm>
0

>  <SCORE.SYSTEM>
0

>  <SCORE.SYSTEM.CONST>
0

>  <SCORE.SYSTEM.DIHEDRAL>
0

>  <SCORE.SYSTEM.SOLV>
0

>  <SCORE.SYSTEM.norm>
0

>  <SCORE.heavy>
46

>  <SCORE.norm>
-1.16743

>  <RMSD>
0.466

$$$$
lig.pdb
 OpenBabel11021811523D
libRbt.so/2013.1/901 2013/11/27
 46 52  0  0  0  0  0  0  0  0999 V2000
  159.6732   46.2088  143.4649 P   0  0  2  0  0  0  0  0  0  0  0  0
  160.3192   47.5446  143.7616 O   0  0  0  0  0  0  0  0  0  0  0  0
  159.1915   45.9877  142.0542 O   0  0  0  0  0  0  0  0  0  0  0  0
  158.4509   45.9152  144.4674 O   0  0  0  0  0  0  0  0  0  0  0  0
  158.2053   46.7359  145.6019 C   0  0  0  0  0  0  0  0  0  0  0  0
  157.2704   46.0241  146.5659 C   0  0  1  0  0  0  0  0  0  0  0  0
  155.9765   46.5930  146.4240 O   0  0  0  0  0  0  0  0  0  0  0  0
  157.1045   44.5268  146.3392 C   0  0  1  0  0  0  0  0  0  0  0  0
  157.8517   43.8106  147.3114 O   0  0  0  0  0  0  0  0  0  0  0  0
  155.6353   44.2904  146.6082 C   0  0  1  0  0  0  0  0  0  0  0  0
  155.4431   43.9905  147.9921 O   0  0  0  0  0  0  0  0  0  0  0  0
  154.9595   45.6057  146.3499 C   0  0  2  0  0  0  0  0  0  0  0  0
  154.3995   45.6041  144.9776 N   0  0  0  0  0  0  0  0  0  0  0  0
  155.0219   46.0609  143.8770 C   0  0  0  0  0  0  0  0  0  0  0  0
  154.2265   45.9268  142.7886 N   0  0  0  0  0  0  0  0  0  0  0  0
  153.0666   45.3740  143.1859 C   0  0  0  0  0  0  0  0  0  0  0  0
  151.7987   44.9619  142.5389 C   0  0  0  0  0  0  0  0  0  0  0  0
  151.6369   45.1221  141.3051 O   0  0  0  0  0  0  0  0  0  0  0  0
  150.8443   44.4211  143.3154 N   0  0  0  0  0  0  0  0  0  0  0  0
  151.0223   44.2527  144.6394 C   0  0  0  0  0  0  0  0  0  0  0  0
  150.0293   43.6988  145.3705 N   0  0  0  0  0  0  0  0  0  0  0  0
  152.1526   44.6065  145.2922 N   0  0  0  0  0  0  0  0  0  0  0  0
  153.1905   45.1626  144.6315 C   0  0  0  0  0  0  0  0  0  0  0  0
  158.1344   42.2144  147.2208 P   0  0  2  0  0  0  0  0  0  0  0  0
  156.8351   41.4954  146.9506 O   0  0  0  0  0  0  0  0  0  0  0  0
  158.9799   41.8684  148.4322 O   0  0  0  0  0  0  0  0  0  0  0  0
  159.0384   42.0981  145.8871 O   0  0  0  0  0  0  0  0  0  0  0  0
  160.4324   42.3987  145.9389 C   0  0  0  0  0  0  0  0  0  0  0  0
  161.0374   42.6923  144.5625 C   0  0  1  0  0  0  0  0  0  0  0  0
  161.1554   41.4719  143.8280 O   0  0  0  0  0  0  0  0  0  0  0  0
  160.2312   43.6550  143.6934 C   0  0  1  0  0  0  0  0  0  0  0  0
  160.6838   45.0027  143.8157 O   0  0  0  0  0  0  0  0  0  0  0  0
  160.4731   43.1099  142.2983 C   0  0  1  0  0  0  0  0  0  0  0  0
  161.6684   43.6598  141.7373 O   0  0  0  0  0  0  0  0  0  0  0  0
  160.6992   41.6237  142.4812 C   0  0  2  0  0  0  0  0  0  0  0  0
  159.4105   40.9036  142.3296 N   0  0  0  0  0  0  0  0  0  0  0  0
  158.8799   40.0450  143.2229 C   0  0  0  0  0  0  0  0  0  0  0  0
  157.6798   39.5549  142.8046 N   0  0  0  0  0  0  0  0  0  0  0  0
  157.4186   40.1133  141.6121 C   0  0  0  0  0  0  0  0  0  0  0  0
  156.3293   40.0294  140.6060 C   0  0  0  0  0  0  0  0  0  0  0  0
  155.3172   39.3155  140.7734 O   0  0  0  0  0  0  0  0  0  0  0  0
  156.4504   40.7723  139.5045 N   0  0  0  0  0  0  0  0  0  0  0  0
  157.5140   41.5593  139.2810 C   0  0  0  0  0  0  0  0  0  0  0  0
  157.5391   42.2525  138.1328 N   0  0  0  0  0  0  0  0  0  0  0  0
  158.5495   41.6825  140.1441 N   0  0  0  0  0  0  0  0  0  0  0  0
  158.5617   40.9967  141.3063 C   0  0  0  0  0  0  0  0  0  0  0  0
  1  3  2  6  0  0  0
  1 32  1  0  0  0  0
  1  2  1  0  0  0  0
  1  4  1  0  0  0  0
  4  5  1  0  0  0  0
  6  5  1  6  0  0  0
  7  6  1  0  0  0  0
  8  6  1  0  0  0  0
  8 10  1  0  0  0  0
  8  9  1  1  0  0  0
 10 11  1  1  0  0  0
 12 13  1  6  0  0  0
 12  7  1  0  0  0  0
 12 10  1  0  0  0  0
 14 13  1  0  0  0  0
 15 16  1  0  0  0  0
 15 14  2  0  0  0  0
 16 23  2  0  0  0  0
 17 16  1  0  0  0  0
 17 19  1  0  0  0  0
 18 17  2  0  0  0  0
 19 20  2  0  0  0  0
 20 22  1  0  0  0  0
 20 21  1  0  0  0  0
 23 13  1  0  0  0  0
 23 22  1  0  0  0  0
 24 25  2  6  0  0  0
 24  9  1  0  0  0  0
 24 26  1  0  0  0  0
 27 28  1  0  0  0  0
 27 24  1  0  0  0  0
 29 30  1  6  0  0  0
 29 28  1  0  0  0  0
 31 32  1  6  0  0  0
 31 29  1  0  0  0  0
 33 34  1  1  0  0  0
 33 35  1  0  0  0  0
 33 31  1  0  0  0  0
 35 36  1  1  0  0  0
 35 30  1  0  0  0  0
 36 37  1  0  0  0  0
 38 37  2  0  0  0  0
 39 38  1  0  0  0  0
 40 41  2  0  0  0  0
 40 39  1  0  0  0  0
 42 40  1  0  0  0  0
 43 42  2  0  0  0  0
 43 45  1  0  0  0  0
 44 43  1  0  0  0  0
 45 46  1  0  0  0  0
 46 39  2  0  0  0  0
 46 36  1  0  0  0  0
M  END
>  <CHROM.1>
22.43861491,-11.43250748,157.14032793,43.56106228,143.94911194,-0.35640542
-0.16962698,1.01282024

>  <Name>
lig.pdb

>  <RI>
0

>  <Rbt.Current_Directory>
/home/itssahil/PROJECTS/Mol_Feturizer/New_Systems/rnas/4yb0

>  <Rbt.Executable>
rbdock ($Id: //depot/dev/client3/rdock/2013.1/src/exe/rbdock.cxx#4 $)

>  <Rbt.Library>
libRbt.so (2013.1, Build901 2013/11/27)

>  <Rbt.Parameter_File>
/export/apps/rDock/src/rDock_2013.1_src/data/scripts/dock_solv.prm

>  <Rbt.Receptor>
prm/pocket_docking_3.prm

>  <SCORE>
-53.6183

>  <SCORE.INTER>
-53.5066

>  <SCORE.INTER.CONST>
1

>  <SCORE.INTER.POLAR>
0

>  <SCORE.INTER.ROT>
2

>  <SCORE.INTER.SOLV>
31.185

>  <SCORE.INTER.VDW>
-50.9994

>  <SCORE.INTER.norm>
-1.16319

>  <SCORE.INTRA>
-0.111707

>  <SCORE.INTRA.DIHEDRAL>
-0.0192541

>  <SCORE.INTRA.DIHEDRAL.0>
4.74153

>  <SCORE.INTRA.POLAR>
0

>  <SCORE.INTRA.POLAR.0>
0

>  <SCORE.INTRA.REPUL>
0

>  <SCORE.INTRA.REPUL.0>
0

>  <SCORE.INTRA.SOLV>
0.00266243

>  <SCORE.INTRA.SOLV.lig_0>
-60.4375

>  <SCORE.INTRA.VDW>
-0.103411

>  <SCORE.INTRA.VDW.0>
-1.83689

>  <SCORE.INTRA.norm>
-0.00242841

>  <SCORE.RESTR>
0

>  <SCORE.RESTR.CAVITY>
0

>  <SCORE.RESTR.norm>
0

>  <SCORE.SYSTEM>
0

>  <SCORE.SYSTEM.CONST>
0

>  <SCORE.SYSTEM.DIHEDRAL>
0

>  <SCORE.SYSTEM.SOLV>
0

>  <SCORE.SYSTEM.norm>
0

>  <SCORE.heavy>
46

>  <SCORE.norm>
-1.16561

>  <RMSD>
0.466

$$$$
lig.pdb
 OpenBabel11021811523D
libRbt.so/2013.1/901 2013/11/27
 46 52  0  0  0  0  0  0  0  0999 V2000
  158.6103   42.1075  147.5002 P   0  0  2  0  0  0  0  0  0  0  0  0
  159.5172   41.3970  148.4813 O   0  0  0  0  0  0  0  0  0  0  0  0
  157.2164   41.5564  147.3447 O   0  0  0  0  0  0  0  0  0  0  0  0
  159.2829   42.1979  146.0426 O   0  0  0  0  0  0  0  0  0  0  0  0
  160.6418   41.8406  145.8265 C   0  0  0  0  0  0  0  0  0  0  0  0
  161.1158   42.3840  144.4887 C   0  0  1  0  0  0  0  0  0  0  0  0
  161.1443   41.3074  143.5622 O   0  0  0  0  0  0  0  0  0  0  0  0
  160.2359   43.4597  143.8646 C   0  0  1  0  0  0  0  0  0  0  0  0
  160.8420   44.7322  144.0368 O   0  0  0  0  0  0  0  0  0  0  0  0
  160.2604   43.1234  142.3904 C   0  0  1  0  0  0  0  0  0  0  0  0
  161.3482   43.8036  141.7612 O   0  0  0  0  0  0  0  0  0  0  0  0
  160.5631   41.6551  142.3149 C   0  0  2  0  0  0  0  0  0  0  0  0
  159.2950   40.9041  142.1572 N   0  0  0  0  0  0  0  0  0  0  0  0
  158.7856   40.0317  143.0442 C   0  0  0  0  0  0  0  0  0  0  0  0
  157.6224   39.5098  142.5863 N   0  0  0  0  0  0  0  0  0  0  0  0
  157.3693   40.0502  141.3810 C   0  0  0  0  0  0  0  0  0  0  0  0
  156.3050   39.9339  140.3564 C   0  0  0  0  0  0  0  0  0  0  0  0
  155.3348   39.1593  140.5373 O   0  0  0  0  0  0  0  0  0  0  0  0
  156.4212   40.6778  139.2430 N   0  0  0  0  0  0  0  0  0  0  0  0
  157.4652   41.5066  139.0531 C   0  0  0  0  0  0  0  0  0  0  0  0
  157.5276   42.2345  137.9157 N   0  0  0  0  0  0  0  0  0  0  0  0
  158.4693   41.6600  139.9458 N   0  0  0  0  0  0  0  0  0  0  0  0
  158.4772   40.9707  141.1068 C   0  0  0  0  0  0  0  0  0  0  0  0
  160.0735   46.1328  143.7470 P   0  0  2  0  0  0  0  0  0  0  0  0
  159.4151   46.0652  142.3905 O   0  0  0  0  0  0  0  0  0  0  0  0
  161.0651   47.2322  144.0787 O   0  0  0  0  0  0  0  0  0  0  0  0
  158.8993   46.1192  144.8562 O   0  0  0  0  0  0  0  0  0  0  0  0
  159.1840   46.4900  146.2044 C   0  0  0  0  0  0  0  0  0  0  0  0
  158.1312   45.9950  147.2010 C   0  0  1  0  0  0  0  0  0  0  0  0
  156.9423   46.7755  147.0592 O   0  0  0  0  0  0  0  0  0  0  0  0
  157.7221   44.5329  147.0372 C   0  0  1  0  0  0  0  0  0  0  0  0
  158.4640   43.6644  147.8925 O   0  0  0  0  0  0  0  0  0  0  0  0
  156.2527   44.5648  147.4138 C   0  0  1  0  0  0  0  0  0  0  0  0
  156.0862   44.4166  148.8266 O   0  0  0  0  0  0  0  0  0  0  0  0
  155.7729   45.9525  147.0429 C   0  0  2  0  0  0  0  0  0  0  0  0
  155.2207   45.9348  145.6656 N   0  0  0  0  0  0  0  0  0  0  0  0
  155.8364   46.4117  144.5656 C   0  0  0  0  0  0  0  0  0  0  0  0
  155.0800   46.2397  143.4460 N   0  0  0  0  0  0  0  0  0  0  0  0
  153.9460   45.6291  143.8247 C   0  0  0  0  0  0  0  0  0  0  0  0
  152.7059   45.1620  143.1542 C   0  0  0  0  0  0  0  0  0  0  0  0
  152.5275   45.2759  141.9224 O   0  0  0  0  0  0  0  0  0  0  0  0
  151.7761   44.5819  143.9149 N   0  0  0  0  0  0  0  0  0  0  0  0
  151.9226   44.4306  145.2402 C   0  0  0  0  0  0  0  0  0  0  0  0
  150.9182   43.8459  145.9099 N   0  0  0  0  0  0  0  0  0  0  0  0
  153.0177   44.8373  145.9241 N   0  0  0  0  0  0  0  0  0  0  0  0
  154.0456   45.4342  145.2851 C   0  0  0  0  0  0  0  0  0  0  0  0
  1  3  2  6  0  0  0
  1 32  1  0  0  0  0
  1  2  1  0  0  0  0
  1  4  1  0  0  0  0
  4  5  1  0  0  0  0
  6  5  1  1  0  0  0
  7  6  1  0  0  0  0
  8  6  1  0  0  0  0
  8 10  1  0  0  0  0
  8  9  1  6  0  0  0
 10 11  1  6  0  0  0
 12 13  1  1  0  0  0
 12  7  1  0  0  0  0
 12 10  1  0  0  0  0
 14 13  1  0  0  0  0
 15 16  1  0  0  0  0
 15 14  2  0  0  0  0
 16 23  2  0  0  0  0
 17 16  1  0  0  0  0
 17 19  1  0  0  0  0
 18 17  2  0  0  0  0
 19 20  2  0  0  0  0
 20 22  1  0  0  0  0
 20 21  1  0  0  0  0
 23 13  1  0  0  0  0
 23 22  1  0  0  0  0
 24 25  2  6  0  0  0
 24  9  1  0  0  0  0
 24 26  1  0  0  0  0
 27 28  1  0  0  0  0
 27 24  1  0  0  0  0
 29 30  1  6  0  0  0
 29 28  1  0  0  0  0
 31 32  1  1  0  0  0
 31 29  1  0  0  0  0
 33 34  1  1  0  0  0
 33 35  1  0  0  0  0
 33 31  1  0  0  0  0
 35 36  1  6  0  0  0
 35 30  1  0  0  0  0
 36 37  1  0  0  0  0
 38 37  2  0  0  0  0
 39 38  1  0  0  0  0
 40 41  2  0  0  0  0
 40 39  1  0  0  0  0
 42 40  1  0  0  0  0
 43 42  2  0  0  0  0
 43 45  1  0  0  0  0
 44 43  1  0  0  0  0
 45 46  1  0  0  0  0
 46 39  2  0  0  0  0
 46 36  1  0  0  0  0
M  END
>  <CHROM.1>
-0.43894065,10.76430180,157.54191601,43.57365184,144.21489495,-2.13772210
0.18197876,-2.11946555

>  <Name>
lig.pdb

>  <RI>
0

>  <Rbt.Current_Directory>
/home/itssahil/PROJECTS/Mol_Feturizer/New_Systems/rnas/4yb0

>  <Rbt.Executable>
rbdock ($Id: //depot/dev/client3/rdock/2013.1/src/exe/rbdock.cxx#4 $)

>  <Rbt.Library>
libRbt.so (2013.1, Build901 2013/11/27)

>  <Rbt.Parameter_File>
/export/apps/rDock/src/rDock_2013.1_src/data/scripts/dock_solv.prm

>  <Rbt.Receptor>
prm/pocket_docking_8.prm

>  <SCORE>
-50.5039

>  <SCORE.INTER>
-50.5265

>  <SCORE.INTER.CONST>
1

>  <SCORE.INTER.POLAR>
0

>  <SCORE.INTER.ROT>
2

>  <SCORE.INTER.SOLV>
29.2626

>  <SCORE.INTER.VDW>
-48.3719

>  <SCORE.INTER.norm>
-1.0984

>  <SCORE.INTRA>
0.0226762

>  <SCORE.INTRA.DIHEDRAL>
0.0894283

>  <SCORE.INTRA.DIHEDRAL.0>
4.74153

>  <SCORE.INTRA.POLAR>
0

>  <SCORE.INTRA.POLAR.0>
0

>  <SCORE.INTRA.REPUL>
0

>  <SCORE.INTRA.REPUL.0>
0

>  <SCORE.INTRA.SOLV>
0.110949

>  <SCORE.INTRA.SOLV.lig_0>
-60.4375

>  <SCORE.INTRA.VDW>
-0.0775125

>  <SCORE.INTRA.VDW.0>
-1.83689

>  <SCORE.INTRA.norm>
0.000492961

>  <SCORE.RESTR>
0

>  <SCORE.RESTR.CAVITY>
0

>  <SCORE.RESTR.norm>
0

>  <SCORE.SYSTEM>
0

>  <SCORE.SYSTEM.CONST>
0

>  <SCORE.SYSTEM.DIHEDRAL>
0

>  <SCORE.SYSTEM.SOLV>
0

>  <SCORE.SYSTEM.norm>
0

>  <SCORE.heavy>
46

>  <SCORE.norm>
-1.09791

>  <RMSD>
0.466

$$$$
lig.pdb
 OpenBabel11021811523D
libRbt.so/2013.1/901 2013/11/27
 46 52  0  0  0  0  0  0  0  0999 V2000
  159.6631   46.2270  143.4249 P   0  0  2  0  0  0  0  0  0  0  0  0
  160.3089   47.5612  143.7288 O   0  0  0  0  0  0  0  0  0  0  0  0
  159.1692   46.0184  142.0165 O   0  0  0  0  0  0  0  0  0  0  0  0
  158.4506   45.9209  144.4354 O   0  0  0  0  0  0  0  0  0  0  0  0
  158.2134   46.7300  145.5800 C   0  0  0  0  0  0  0  0  0  0  0  0
  157.2888   46.0068  146.5454 C   0  0  1  0  0  0  0  0  0  0  0  0
  155.9924   46.5741  146.4206 O   0  0  0  0  0  0  0  0  0  0  0  0
  157.1241   44.5114  146.3056 C   0  0  1  0  0  0  0  0  0  0  0  0
  157.8816   43.7874  147.2641 O   0  0  0  0  0  0  0  0  0  0  0  0
  155.6579   44.2690  146.5855 C   0  0  1  0  0  0  0  0  0  0  0  0
  155.4788   43.9553  147.9681 O   0  0  0  0  0  0  0  0  0  0  0  0
  154.9769   45.5852  146.3461 C   0  0  2  0  0  0  0  0  0  0  0  0
  154.4046   45.5956  144.9789 N   0  0  0  0  0  0  0  0  0  0  0  0
  155.0168   46.0629  143.8769 C   0  0  0  0  0  0  0  0  0  0  0  0
  154.2117   45.9380  142.7946 N   0  0  0  0  0  0  0  0  0  0  0  0
  153.0557   45.3809  143.1972 C   0  0  0  0  0  0  0  0  0  0  0  0
  151.7824   44.9737  142.5579 C   0  0  0  0  0  0  0  0  0  0  0  0
  151.6094   45.1450  141.3272 O   0  0  0  0  0  0  0  0  0  0  0  0
  150.8353   44.4253  143.3381 N   0  0  0  0  0  0  0  0  0  0  0  0
  151.0253   44.2450  144.6589 C   0  0  0  0  0  0  0  0  0  0  0  0
  150.0393   43.6838  145.3938 N   0  0  0  0  0  0  0  0  0  0  0  0
  152.1612   44.5937  145.3046 N   0  0  0  0  0  0  0  0  0  0  0  0
  153.1928   45.1564  144.6397 C   0  0  0  0  0  0  0  0  0  0  0  0
  158.1669   42.1928  147.1555 P   0  0  2  0  0  0  0  0  0  0  0  0
  156.8668   41.4736  146.8900 O   0  0  0  0  0  0  0  0  0  0  0  0
  159.0240   41.8370  148.3559 O   0  0  0  0  0  0  0  0  0  0  0  0
  159.0591   42.0915  145.8127 O   0  0  0  0  0  0  0  0  0  0  0  0
  160.4529   42.3948  145.8549 C   0  0  0  0  0  0  0  0  0  0  0  0
  161.0448   42.7031  144.4760 C   0  0  1  0  0  0  0  0  0  0  0  0
  161.1589   41.4901  143.7287 O   0  0  0  0  0  0  0  0  0  0  0  0
  160.2288   43.6723  143.6236 C   0  0  1  0  0  0  0  0  0  0  0  0
  160.6795   45.0198  143.7549 O   0  0  0  0  0  0  0  0  0  0  0  0
  160.4593   43.1413  142.2211 C   0  0  1  0  0  0  0  0  0  0  0  0
  161.6482   43.6994  141.6548 O   0  0  0  0  0  0  0  0  0  0  0  0
  160.6902   41.6539  142.3875 C   0  0  2  0  0  0  0  0  0  0  0  0
  159.4018   40.9324  142.2406 N   0  0  0  0  0  0  0  0  0  0  0  0
  158.8738   40.0757  143.1371 C   0  0  0  0  0  0  0  0  0  0  0  0
  157.6732   39.5836  142.7227 N   0  0  0  0  0  0  0  0  0  0  0  0
  157.4090   40.1387  141.5293 C   0  0  0  0  0  0  0  0  0  0  0  0
  156.3177   40.0513  140.5257 C   0  0  0  0  0  0  0  0  0  0  0  0
  155.3065   39.3370  140.6971 O   0  0  0  0  0  0  0  0  0  0  0  0
  156.4358   40.7914  139.4221 N   0  0  0  0  0  0  0  0  0  0  0  0
  157.4984   41.5788  139.1942 C   0  0  0  0  0  0  0  0  0  0  0  0
  157.5205   42.2690  138.0443 N   0  0  0  0  0  0  0  0  0  0  0  0
  158.5356   41.7049  140.0548 N   0  0  0  0  0  0  0  0  0  0  0  0
  158.5507   41.0222  141.2189 C   0  0  0  0  0  0  0  0  0  0  0  0
  1  3  2  6  0  0  0
  1 32  1  0  0  0  0
  1  2  1  0  0  0  0
  1  4  1  0  0  0  0
  4  5  1  0  0  0  0
  6  5  1  6  0  0  0
  7  6  1  0  0  0  0
  8  6  1  0  0  0  0
  8 10  1  0  0  0  0
  8  9  1  1  0  0  0
 10 11  1  1  0  0  0
 12 13  1  6  0  0  0
 12  7  1  0  0  0  0
 12 10  1  0  0  0  0
 14 13  1  0  0  0  0
 15 16  1  0  0  0  0
 15 14  2  0  0  0  0
 16 23  2  0  0  0  0
 17 16  1  0  0  0  0
 17 19  1  0  0  0  0
 18 17  2  0  0  0  0
 19 20  2  0  0  0  0
 20 22  1  0  0  0  0
 20 21  1  0  0  0  0
 23 13  1  0  0  0  0
 23 22  1  0  0  0  0
 24 25  2  6  0  0  0
 24  9  1  0  0  0  0
 24 26  1  0  0  0  0
 27 28  1  0  0  0  0
 27 24  1  0  0  0  0
 29 30  1  6  0  0  0
 29 28  1  0  0  0  0
 31 32  1  6  0  0  0
 31 29  1  0  0  0  0
 33 34  1  1  0  0  0
 33 35  1  0  0  0  0
 33 31  1  0  0  0  0
 35 36  1  1  0  0  0
 35 30  1  0  0  0  0
 36 37  1  0  0  0  0
 38 37  2  0  0  0  0
 39 38  1  0  0  0  0
 40 41  2  0  0  0  0
 40 39  1  0  0  0  0
 42 40  1  0  0  0  0
 43 42  2  0  0  0  0
 43 45  1  0  0  0  0
 44 43  1  0  0  0  0
 45 46  1  0  0  0  0
 46 39  2  0  0  0  0
 46 36  1  0  0  0  0
M  END
>  <CHROM.1>
22.53541575,-10.62184561,157.14237672,43.56611540,143.90412020,-0.37051697
-0.16275553,1.01995688

>  <Name>
lig.pdb

>  <RI>
0

>  <Rbt.Current_Directory>
/home/itssahil/PROJECTS/Mol_Feturizer/New_Systems/rnas/4yb0

>  <Rbt.Executable>
rbdock ($Id: //depot/dev/client3/rdock/2013.1/src/exe/rbdock.cxx#4 $)

>  <Rbt.Library>
libRbt.so (2013.1, Build901 2013/11/27)

>  <Rbt.Parameter_File>
/export/apps/rDock/src/rDock_2013.1_src/data/scripts/dock_solv.prm

>  <Rbt.Receptor>
prm/pocket_docking_8.prm

>  <SCORE>
-53.5766

>  <SCORE.INTER>
-53.4611

>  <SCORE.INTER.CONST>
1

>  <SCORE.INTER.POLAR>
0

>  <SCORE.INTER.ROT>
2

>  <SCORE.INTER.SOLV>
31.5458

>  <SCORE.INTER.VDW>
-51.0894

>  <SCORE.INTER.norm>
-1.1622

>  <SCORE.INTRA>
-0.115438

>  <SCORE.INTRA.DIHEDRAL>
-0.0172378

>  <SCORE.INTRA.DIHEDRAL.0>
4.74153

>  <SCORE.INTRA.POLAR>
0

>  <SCORE.INTRA.POLAR.0>
0

>  <SCORE.INTRA.REPUL>
0

>  <SCORE.INTRA.REPUL.0>
0

>  <SCORE.INTRA.SOLV>
0.00622245

>  <SCORE.INTRA.SOLV.lig_0>
-60.4375

>  <SCORE.INTRA.VDW>
-0.10993

>  <SCORE.INTRA.VDW.0>
-1.83689

>  <SCORE.INTRA.norm>
-0.00250952

>  <SCORE.RESTR>
0

>  <SCORE.RESTR.CAVITY>
0

>  <SCORE.RESTR.norm>
0

>  <SCORE.SYSTEM>
0

>  <SCORE.SYSTEM.CONST>
0

>  <SCORE.SYSTEM.DIHEDRAL>
0

>  <SCORE.SYSTEM.SOLV>
0

>  <SCORE.SYSTEM.norm>
0

>  <SCORE.heavy>
46

>  <SCORE.norm>
-1.16471

>  <RMSD>
0.467

$$$$
lig.pdb
 OpenBabel11021811523D
libRbt.so/2013.1/901 2013/11/27
 46 52  0  0  0  0  0  0  0  0999 V2000
  159.6741   46.2304  143.3988 P   0  0  2  0  0  0  0  0  0  0  0  0
  160.3215   47.5684  143.6821 O   0  0  0  0  0  0  0  0  0  0  0  0
  159.1855   45.9983  141.9922 O   0  0  0  0  0  0  0  0  0  0  0  0
  158.4569   45.9443  144.4095 O   0  0  0  0  0  0  0  0  0  0  0  0
  158.2168   46.7737  145.5390 C   0  0  0  0  0  0  0  0  0  0  0  0
  157.2868   46.0692  146.5129 C   0  0  1  0  0  0  0  0  0  0  0  0
  155.9921   46.6369  146.3731 O   0  0  0  0  0  0  0  0  0  0  0  0
  157.1200   44.5702  146.2985 C   0  0  1  0  0  0  0  0  0  0  0  0
  157.8720   43.8615  147.2725 O   0  0  0  0  0  0  0  0  0  0  0  0
  155.6521   44.3357  146.5766 C   0  0  1  0  0  0  0  0  0  0  0  0
  155.4668   44.0465  147.9637 O   0  0  0  0  0  0  0  0  0  0  0  0
  154.9749   45.6489  146.3116 C   0  0  2  0  0  0  0  0  0  0  0  0
  154.4081   45.6367  144.9422 N   0  0  0  0  0  0  0  0  0  0  0  0
  155.0135   46.1111  143.8395 C   0  0  0  0  0  0  0  0  0  0  0  0
  154.2161   45.9601  142.7548 N   0  0  0  0  0  0  0  0  0  0  0  0
  153.0721   45.3783  143.1566 C   0  0  0  0  0  0  0  0  0  0  0  0
  151.8113   44.9367  142.5150 C   0  0  0  0  0  0  0  0  0  0  0  0
  151.6394   45.0957  141.2825 O   0  0  0  0  0  0  0  0  0  0  0  0
  150.8744   44.3710  143.2951 N   0  0  0  0  0  0  0  0  0  0  0  0
  151.0632   44.2041  144.6178 C   0  0  0  0  0  0  0  0  0  0  0  0
  150.0878   43.6244  145.3525 N   0  0  0  0  0  0  0  0  0  0  0  0
  152.1878   44.5839  145.2657 N   0  0  0  0  0  0  0  0  0  0  0  0
  153.2084   45.1666  144.6011 C   0  0  0  0  0  0  0  0  0  0  0  0
  158.1545   42.2647  147.1928 P   0  0  2  0  0  0  0  0  0  0  0  0
  156.8539   41.5436  146.9346 O   0  0  0  0  0  0  0  0  0  0  0  0
  159.0060   41.9281  148.4026 O   0  0  0  0  0  0  0  0  0  0  0  0
  159.0518   42.1383  145.8556 O   0  0  0  0  0  0  0  0  0  0  0  0
  160.4461   42.4394  145.8982 C   0  0  0  0  0  0  0  0  0  0  0  0
  161.0442   42.7225  144.5166 C   0  0  1  0  0  0  0  0  0  0  0  0
  161.1587   41.4965  143.7909 O   0  0  0  0  0  0  0  0  0  0  0  0
  160.2336   43.6784  143.6441 C   0  0  1  0  0  0  0  0  0  0  0  0
  160.6867   45.0271  143.7539 O   0  0  0  0  0  0  0  0  0  0  0  0
  160.4687   43.1226  142.2520 C   0  0  1  0  0  0  0  0  0  0  0  0
  161.6611   43.6684  141.6810 O   0  0  0  0  0  0  0  0  0  0  0  0
  160.6959   41.6379  142.4452 C   0  0  2  0  0  0  0  0  0  0  0  0
  159.4065   40.9166  142.3056 N   0  0  0  0  0  0  0  0  0  0  0  0
  158.8835   40.0599  143.2051 C   0  0  0  0  0  0  0  0  0  0  0  0
  157.6806   39.5679  142.7975 N   0  0  0  0  0  0  0  0  0  0  0  0
  157.4096   40.1231  141.6056 C   0  0  0  0  0  0  0  0  0  0  0  0
  156.3126   40.0359  140.6083 C   0  0  0  0  0  0  0  0  0  0  0  0
  155.3023   39.3217  140.7854 O   0  0  0  0  0  0  0  0  0  0  0  0
  156.4246   40.7760  139.5040 N   0  0  0  0  0  0  0  0  0  0  0  0
  157.4859   41.5632  139.2701 C   0  0  0  0  0  0  0  0  0  0  0  0
  157.5015   42.2535  138.1201 N   0  0  0  0  0  0  0  0  0  0  0  0
  158.5280   41.6893  140.1248 N   0  0  0  0  0  0  0  0  0  0  0  0
  158.5497   41.0065  141.2887 C   0  0  0  0  0  0  0  0  0  0  0  0
  1  3  2  6  0  0  0
  1 32  1  0  0  0  0
  1  2  1  0  0  0  0
  1  4  1  0  0  0  0
  4  5  1  0  0  0  0
  6  5  1  6  0  0  0
  7  6  1  0  0  0  0
  8  6  1  0  0  0  0
  8 10  1  0  0  0  0
  8  9  1  1  0  0  0
 10 11  1  1  0  0  0
 12 13  1  6  0  0  0
 12  7  1  0  0  0  0
 12 10  1  0  0  0  0
 14 13  1  0  0  0  0
 15 16  1  0  0  0  0
 15 14  2  0  0  0  0
 16 23  2  0  0  0  0
 17 16  1  0  0  0  0
 17 19  1  0  0  0  0
 18 17  2  0  0  0  0
 19 20  2  0  0  0  0
 20 22  1  0  0  0  0
 20 21  1  0  0  0  0
 23 13  1  0  0  0  0
 23 22  1  0  0  0  0
 24 25  2  6  0  0  0
 24  9  1  0  0  0  0
 24 26  1  0  0  0  0
 27 28  1  0  0  0  0
 27 24  1  0  0  0  0
 29 30  1  6  0  0  0
 29 28  1  0  0  0  0
 31 32  1  6  0  0  0
 31 29  1  0  0  0  0
 33 34  1  1  0  0  0
 33 35  1  0  0  0  0
 33 31  1  0  0  0  0
 35 36  1  1  0  0  0
 35 30  1  0  0  0  0
 36 37  1  0  0  0  0
 38 37  2  0  0  0  0
 39 38  1  0  0  0  0
 40 41  2  0  0  0  0
 40 39  1  0  0  0  0
 42 40  1  0  0  0  0
 43 42  2  0  0  0  0
 43 45  1  0  0  0  0
 44 43  1  0  0  0  0
 45 46  1  0  0  0  0
 46 39  2  0  0  0  0
 46 36  1  0  0  0  0
M  END
>  <CHROM.1>
20.93243103,-11.77034246,157.14637778,43.57999750,143.91542775,-0.35387506
-0.16168673,1.00336188

>  <Name>
lig.pdb

>  <RI>
0

>  <Rbt.Current_Directory>
/home/itssahil/PROJECTS/Mol_Feturizer/New_Systems/rnas/4yb0

>  <Rbt.Executable>
rbdock ($Id: //depot/dev/client3/rdock/2013.1/src/exe/rbdock.cxx#4 $)

>  <Rbt.Library>
libRbt.so (2013.1, Build901 2013/11/27)

>  <Rbt.Parameter_File>
/export/apps/rDock/src/rDock_2013.1_src/data/scripts/dock_solv.prm

>  <Rbt.Receptor>
prm/pocket_docking_2.prm

>  <SCORE>
-53.5903

>  <SCORE.INTER>
-53.4914

>  <SCORE.INTER.CONST>
1

>  <SCORE.INTER.POLAR>
0

>  <SCORE.INTER.ROT>
2

>  <SCORE.INTER.SOLV>
31.0344

>  <SCORE.INTER.VDW>
-50.9391

>  <SCORE.INTER.norm>
-1.16286

>  <SCORE.INTRA>
-0.0988464

>  <SCORE.INTRA.DIHEDRAL>
-0.0186526

>  <SCORE.INTRA.DIHEDRAL.0>
4.74153

>  <SCORE.INTRA.POLAR>
0

>  <SCORE.INTRA.POLAR.0>
0

>  <SCORE.INTRA.REPUL>
0

>  <SCORE.INTRA.REPUL.0>
0

>  <SCORE.INTRA.SOLV>
-0.000950521

>  <SCORE.INTRA.SOLV.lig_0>
-60.4375

>  <SCORE.INTRA.VDW>
-0.0890448

>  <SCORE.INTRA.VDW.0>
-1.83689

>  <SCORE.INTRA.norm>
-0.00214884

>  <SCORE.RESTR>
0

>  <SCORE.RESTR.CAVITY>
0

>  <SCORE.RESTR.norm>
0

>  <SCORE.SYSTEM>
0

>  <SCORE.SYSTEM.CONST>
0

>  <SCORE.SYSTEM.DIHEDRAL>
0

>  <SCORE.SYSTEM.SOLV>
0

>  <SCORE.SYSTEM.norm>
0

>  <SCORE.heavy>
46

>  <SCORE.norm>
-1.16501

>  <RMSD>
0.468

$$$$
lig.pdb
 OpenBabel11021811523D
libRbt.so/2013.1/901 2013/11/27
 46 52  0  0  0  0  0  0  0  0999 V2000
  159.6603   46.2380  143.4212 P   0  0  2  0  0  0  0  0  0  0  0  0
  160.3034   47.5773  143.7083 O   0  0  0  0  0  0  0  0  0  0  0  0
  159.1698   46.0095  142.0147 O   0  0  0  0  0  0  0  0  0  0  0  0
  158.4461   45.9437  144.4332 O   0  0  0  0  0  0  0  0  0  0  0  0
  158.2052   46.7679  145.5662 C   0  0  0  0  0  0  0  0  0  0  0  0
  157.2796   46.0564  146.5393 C   0  0  1  0  0  0  0  0  0  0  0  0
  155.9827   46.6199  146.4042 O   0  0  0  0  0  0  0  0  0  0  0  0
  157.1179   44.5576  146.3196 C   0  0  1  0  0  0  0  0  0  0  0  0
  157.8744   43.8480  147.2895 O   0  0  0  0  0  0  0  0  0  0  0  0
  155.6514   44.3168  146.5997 C   0  0  1  0  0  0  0  0  0  0  0  0
  155.4699   44.0216  147.9860 O   0  0  0  0  0  0  0  0  0  0  0  0
  154.9689   45.6285  146.3409 C   0  0  2  0  0  0  0  0  0  0  0  0
  154.3995   45.6194  144.9725 N   0  0  0  0  0  0  0  0  0  0  0  0
  155.0110   46.0779  143.8665 C   0  0  0  0  0  0  0  0  0  0  0  0
  154.2092   45.9353  142.7839 N   0  0  0  0  0  0  0  0  0  0  0  0
  153.0560   45.3753  143.1906 C   0  0  0  0  0  0  0  0  0  0  0  0
  151.7867   44.9525  142.5533 C   0  0  0  0  0  0  0  0  0  0  0  0
  151.6152   45.1084  141.3204 O   0  0  0  0  0  0  0  0  0  0  0  0
  150.8415   44.4069  143.3378 N   0  0  0  0  0  0  0  0  0  0  0  0
  151.0298   44.2431  144.6610 C   0  0  0  0  0  0  0  0  0  0  0  0
  150.0459   43.6840  145.4002 N   0  0  0  0  0  0  0  0  0  0  0  0
  152.1620   44.6066  145.3050 N   0  0  0  0  0  0  0  0  0  0  0  0
  153.1913   45.1684  144.6358 C   0  0  0  0  0  0  0  0  0  0  0  0
  158.1625   42.2525  147.2032 P   0  0  2  0  0  0  0  0  0  0  0  0
  156.8641   41.5277  146.9447 O   0  0  0  0  0  0  0  0  0  0  0  0
  159.0175   41.9145  148.4101 O   0  0  0  0  0  0  0  0  0  0  0  0
  159.0577   42.1344  145.8638 O   0  0  0  0  0  0  0  0  0  0  0  0
  160.4509   42.4404  145.9048 C   0  0  0  0  0  0  0  0  0  0  0  0
  161.0453   42.7309  144.5231 C   0  0  1  0  0  0  0  0  0  0  0  0
  161.1629   41.5081  143.7926 O   0  0  0  0  0  0  0  0  0  0  0  0
  160.2296   43.6872  143.6559 C   0  0  1  0  0  0  0  0  0  0  0  0
  160.6779   45.0371  143.7698 O   0  0  0  0  0  0  0  0  0  0  0  0
  160.4639   43.1375  142.2612 C   0  0  1  0  0  0  0  0  0  0  0  0
  161.6533   43.6897  141.6899 O   0  0  0  0  0  0  0  0  0  0  0  0
  160.6969   41.6529  142.4484 C   0  0  2  0  0  0  0  0  0  0  0  0
  159.4099   40.9274  142.3085 N   0  0  0  0  0  0  0  0  0  0  0  0
  158.8861   40.0744  143.2111 C   0  0  0  0  0  0  0  0  0  0  0  0
  157.6859   39.5770  142.8022 N   0  0  0  0  0  0  0  0  0  0  0  0
  157.4174   40.1248  141.6063 C   0  0  0  0  0  0  0  0  0  0  0  0
  156.3240   40.0291  140.6059 C   0  0  0  0  0  0  0  0  0  0  0  0
  155.3150   39.3133  140.7836 O   0  0  0  0  0  0  0  0  0  0  0  0
  156.4377   40.7633  139.4979 N   0  0  0  0  0  0  0  0  0  0  0  0
  157.4977   41.5520  139.2631 C   0  0  0  0  0  0  0  0  0  0  0  0
  157.5154   42.2358  138.1093 N   0  0  0  0  0  0  0  0  0  0  0  0
  158.5366   41.6856  140.1205 N   0  0  0  0  0  0  0  0  0  0  0  0
  158.5562   41.0094  141.2883 C   0  0  0  0  0  0  0  0  0  0  0  0
  1  3  2  6  0  0  0
  1 32  1  0  0  0  0
  1  2  1  0  0  0  0
  1  4  1  0  0  0  0
  4  5  1  0  0  0  0
  6  5  1  6  0  0  0
  7  6  1  0  0  0  0
  8  6  1  0  0  0  0
  8 10  1  0  0  0  0
  8  9  1  1  0  0  0
 10 11  1  1  0  0  0
 12 13  1  6  0  0  0
 12  7  1  0  0  0  0
 12 10  1  0  0  0  0
 14 13  1  0  0  0  0
 15 16  1  0  0  0  0
 15 14  2  0  0  0  0
 16 23  2  0  0  0  0
 17 16  1  0  0  0  0
 17 19  1  0  0  0  0
 18 17  2  0  0  0  0
 19 20  2  0  0  0  0
 20 22  1  0  0  0  0
 20 21  1  0  0  0  0
 23 13  1  0  0  0  0
 23 22  1  0  0  0  0
 24 25  2  6  0  0  0
 24  9  1  0  0  0  0
 24 26  1  0  0  0  0
 27 28  1  0  0  0  0
 27 24  1  0  0  0  0
 29 30  1  6  0  0  0
 29 28  1  0  0  0  0
 31 32  1  6  0  0  0
 31 29  1  0  0  0  0
 33 34  1  1  0  0  0
 33 35  1  0  0  0  0
 33 31  1  0  0  0  0
 35 36  1  1  0  0  0
 35 30  1  0  0  0  0
 36 37  1  0  0  0  0
 38 37  2  0  0  0  0
 39 38  1  0  0  0  0
 40 41  2  0  0  0  0
 40 39  1  0  0  0  0
 42 40  1  0  0  0  0
 43 42  2  0  0  0  0
 43 45  1  0  0  0  0
 44 43  1  0  0  0  0
 45 46  1  0  0  0  0
 46 39  2  0  0  0  0
 46 36  1  0  0  0  0
M  END
>  <CHROM.1>
22.22904412,-11.15147809,157.14205883,43.58046256,143.93228521,-0.36230052
-0.16181319,1.00749375

>  <Name>
lig.pdb

>  <RI>
0

>  <Rbt.Current_Directory>
/home/itssahil/PROJECTS/Mol_Feturizer/New_Systems/rnas/4yb0

>  <Rbt.Executable>
rbdock ($Id: //depot/dev/client3/rdock/2013.1/src/exe/rbdock.cxx#4 $)

>  <Rbt.Library>
libRbt.so (2013.1, Build901 2013/11/27)

>  <Rbt.Parameter_File>
/export/apps/rDock/src/rDock_2013.1_src/data/scripts/dock_solv.prm

>  <Rbt.Receptor>
prm/pocket_docking_2.prm

>  <SCORE>
-53.656

>  <SCORE.INTER>
-53.5448

>  <SCORE.INTER.CONST>
1

>  <SCORE.INTER.POLAR>
0

>  <SCORE.INTER.ROT>
2

>  <SCORE.INTER.SOLV>
31.1596

>  <SCORE.INTER.VDW>
-51.0164

>  <SCORE.INTER.norm>
-1.16402

>  <SCORE.INTRA>
-0.111182

>  <SCORE.INTRA.DIHEDRAL>
-0.0183454

>  <SCORE.INTRA.DIHEDRAL.0>
4.74153

>  <SCORE.INTRA.POLAR>
0

>  <SCORE.INTRA.POLAR.0>
0

>  <SCORE.INTRA.REPUL>
0

>  <SCORE.INTRA.REPUL.0>
0

>  <SCORE.INTRA.SOLV>
0.0035954

>  <SCORE.INTRA.SOLV.lig_0>
-60.4375

>  <SCORE.INTRA.VDW>
-0.103807

>  <SCORE.INTRA.VDW.0>
-1.83689

>  <SCORE.INTRA.norm>
-0.002417

>  <SCORE.RESTR>
0

>  <SCORE.RESTR.CAVITY>
0

>  <SCORE.RESTR.norm>
0

>  <SCORE.SYSTEM>
0

>  <SCORE.SYSTEM.CONST>
0

>  <SCORE.SYSTEM.DIHEDRAL>
0

>  <SCORE.SYSTEM.SOLV>
0

>  <SCORE.SYSTEM.norm>
0

>  <SCORE.heavy>
46

>  <SCORE.norm>
-1.16643

>  <RMSD>
0.468

$$$$
lig.pdb
 OpenBabel11021811523D
libRbt.so/2013.1/901 2013/11/27
 46 52  0  0  0  0  0  0  0  0999 V2000
  159.6461   46.2337  143.4282 P   0  0  2  0  0  0  0  0  0  0  0  0
  160.2864   47.5751  143.7116 O   0  0  0  0  0  0  0  0  0  0  0  0
  159.1516   46.0022  142.0235 O   0  0  0  0  0  0  0  0  0  0  0  0
  158.4361   45.9371  144.4445 O   0  0  0  0  0  0  0  0  0  0  0  0
  158.1966   46.7619  145.5774 C   0  0  0  0  0  0  0  0  0  0  0  0
  157.2762   46.0490  146.5543 C   0  0  1  0  0  0  0  0  0  0  0  0
  155.9772   46.6087  146.4228 O   0  0  0  0  0  0  0  0  0  0  0  0
  157.1179   44.5495  146.3368 C   0  0  1  0  0  0  0  0  0  0  0  0
  157.8796   43.8431  147.3049 O   0  0  0  0  0  0  0  0  0  0  0  0
  155.6530   44.3049  146.6219 C   0  0  1  0  0  0  0  0  0  0  0  0
  155.4769   44.0107  148.0092 O   0  0  0  0  0  0  0  0  0  0  0  0
  154.9660   45.6144  146.3640 C   0  0  2  0  0  0  0  0  0  0  0  0
  154.3922   45.6022  144.9974 N   0  0  0  0  0  0  0  0  0  0  0  0
  155.0053   46.0458  143.8863 C   0  0  0  0  0  0  0  0  0  0  0  0
  154.1984   45.9049  142.8073 N   0  0  0  0  0  0  0  0  0  0  0  0
  153.0402   45.3610  143.2215 C   0  0  0  0  0  0  0  0  0  0  0  0
  151.7641   44.9483  142.5913 C   0  0  0  0  0  0  0  0  0  0  0  0
  151.5905   45.0974  141.3578 O   0  0  0  0  0  0  0  0  0  0  0  0
  150.8152   44.4190  143.3825 N   0  0  0  0  0  0  0  0  0  0  0  0
  151.0059   44.2625  144.7062 C   0  0  0  0  0  0  0  0  0  0  0  0
  150.0180   43.7198  145.4525 N   0  0  0  0  0  0  0  0  0  0  0  0
  152.1443   44.6175  145.3442 N   0  0  0  0  0  0  0  0  0  0  0  0
  153.1778   45.1627  144.6677 C   0  0  0  0  0  0  0  0  0  0  0  0
  158.1718   42.2483  147.2195 P   0  0  2  0  0  0  0  0  0  0  0  0
  156.8746   41.5195  146.9661 O   0  0  0  0  0  0  0  0  0  0  0  0
  159.0318   41.9139  148.4239 O   0  0  0  0  0  0  0  0  0  0  0  0
  159.0629   42.1312  145.8772 O   0  0  0  0  0  0  0  0  0  0  0  0
  160.4554   42.4411  145.9133 C   0  0  0  0  0  0  0  0  0  0  0  0
  161.0445   42.7317  144.5294 C   0  0  1  0  0  0  0  0  0  0  0  0
  161.1630   41.5084  143.7999 O   0  0  0  0  0  0  0  0  0  0  0  0
  160.2232   43.6847  143.6638 C   0  0  1  0  0  0  0  0  0  0  0  0
  160.6682   45.0360  143.7747 O   0  0  0  0  0  0  0  0  0  0  0  0
  160.4545   43.1342  142.2689 C   0  0  1  0  0  0  0  0  0  0  0  0
  161.6404   43.6891  141.6931 O   0  0  0  0  0  0  0  0  0  0  0  0
  160.6922   41.6504  142.4570 C   0  0  2  0  0  0  0  0  0  0  0  0
  159.4068   40.9212  142.3221 N   0  0  0  0  0  0  0  0  0  0  0  0
  158.8933   40.0599  143.2228 C   0  0  0  0  0  0  0  0  0  0  0  0
  157.6917   39.5610  142.8199 N   0  0  0  0  0  0  0  0  0  0  0  0
  157.4117   40.1162  141.6301 C   0  0  0  0  0  0  0  0  0  0  0  0
  156.3107   40.0236  140.6376 C   0  0  0  0  0  0  0  0  0  0  0  0
  155.3058   39.3028  140.8183 O   0  0  0  0  0  0  0  0  0  0  0  0
  156.4130   40.7660  139.5340 N   0  0  0  0  0  0  0  0  0  0  0  0
  157.4683   41.5602  139.2965 C   0  0  0  0  0  0  0  0  0  0  0  0
  157.4743   42.2522  138.1474 N   0  0  0  0  0  0  0  0  0  0  0  0
  158.5135   41.6915  140.1466 N   0  0  0  0  0  0  0  0  0  0  0  0
  158.5448   41.0072  141.3093 C   0  0  0  0  0  0  0  0  0  0  0  0
  1  3  2  6  0  0  0
  1 32  1  0  0  0  0
  1  2  1  0  0  0  0
  1  4  1  0  0  0  0
  4  5  1  0  0  0  0
  6  5  1  6  0  0  0
  7  6  1  0  0  0  0
  8  6  1  0  0  0  0
  8 10  1  0  0  0  0
  8  9  1  1  0  0  0
 10 11  1  1  0  0  0
 12 13  1  6  0  0  0
 12  7  1  0  0  0  0
 12 10  1  0  0  0  0
 14 13  1  0  0  0  0
 15 16  1  0  0  0  0
 15 14  2  0  0  0  0
 16 23  2  0  0  0  0
 17 16  1  0  0  0  0
 17 19  1  0  0  0  0
 18 17  2  0  0  0  0
 19 20  2  0  0  0  0
 20 22  1  0  0  0  0
 20 21  1  0  0  0  0
 23 13  1  0  0  0  0
 23 22  1  0  0  0  0
 24 25  2  6  0  0  0
 24  9  1  0  0  0  0
 24 26  1  0  0  0  0
 27 28  1  0  0  0  0
 27 24  1  0  0  0  0
 29 30  1  6  0  0  0
 29 28  1  0  0  0  0
 31 32  1  6  0  0  0
 31 29  1  0  0  0  0
 33 34  1  1  0  0  0
 33 35  1  0  0  0  0
 33 31  1  0  0  0  0
 35 36  1  1  0  0  0
 35 30  1  0  0  0  0
 36 37  1  0  0  0  0
 38 37  2  0  0  0  0
 39 38  1  0  0  0  0
 40 41  2  0  0  0  0
 40 39  1  0  0  0  0
 42 40  1  0  0  0  0
 43 42  2  0  0  0  0
 43 45  1  0  0  0  0
 44 43  1  0  0  0  0
 45 46  1  0  0  0  0
 46 39  2  0  0  0  0
 46 36  1  0  0  0  0
M  END
>  <CHROM.1>
23.11270861,-11.69228482,157.13373241,43.57636368,143.95253390,-0.36092882
-0.16137182,1.00819936

>  <Name>
lig.pdb

>  <RI>
0

>  <Rbt.Current_Directory>
/home/itssahil/PROJECTS/Mol_Feturizer/New_Systems/rnas/4yb0

>  <Rbt.Executable>
rbdock ($Id: //depot/dev/client3/rdock/2013.1/src/exe/rbdock.cxx#4 $)

>  <Rbt.Library>
libRbt.so (2013.1, Build901 2013/11/27)

>  <Rbt.Parameter_File>
/export/apps/rDock/src/rDock_2013.1_src/data/scripts/dock_solv.prm

>  <Rbt.Receptor>
prm/pocket_docking_4.prm

>  <SCORE>
-53.6714

>  <SCORE.INTER>
-53.5369

>  <SCORE.INTER.CONST>
1

>  <SCORE.INTER.POLAR>
0

>  <SCORE.INTER.ROT>
2

>  <SCORE.INTER.SOLV>
31.2207

>  <SCORE.INTER.VDW>
-51.0315

>  <SCORE.INTER.norm>
-1.16385

>  <SCORE.INTRA>
-0.134447

>  <SCORE.INTRA.DIHEDRAL>
-0.0204818

>  <SCORE.INTRA.DIHEDRAL.0>
4.74153

>  <SCORE.INTRA.POLAR>
0

>  <SCORE.INTRA.POLAR.0>
0

>  <SCORE.INTRA.REPUL>
0

>  <SCORE.INTRA.REPUL.0>
0

>  <SCORE.INTRA.SOLV>
0.00236384

>  <SCORE.INTRA.SOLV.lig_0>
-60.4375

>  <SCORE.INTRA.VDW>
-0.125388

>  <SCORE.INTRA.VDW.0>
-1.83689

>  <SCORE.INTRA.norm>
-0.00292275

>  <SCORE.RESTR>
0

>  <SCORE.RESTR.CAVITY>
0

>  <SCORE.RESTR.norm>
0

>  <SCORE.SYSTEM>
0

>  <SCORE.SYSTEM.CONST>
0

>  <SCORE.SYSTEM.DIHEDRAL>
0

>  <SCORE.SYSTEM.SOLV>
0

>  <SCORE.SYSTEM.norm>
0

>  <SCORE.heavy>
46

>  <SCORE.norm>
-1.16677

>  <RMSD>
0.468

$$$$
lig.pdb
 OpenBabel11021811523D
libRbt.so/2013.1/901 2013/11/27
 46 52  0  0  0  0  0  0  0  0999 V2000
  159.6711   46.2451  143.4089 P   0  0  2  0  0  0  0  0  0  0  0  0
  160.3142   47.5843  143.6959 O   0  0  0  0  0  0  0  0  0  0  0  0
  159.1842   46.0151  142.0013 O   0  0  0  0  0  0  0  0  0  0  0  0
  158.4539   45.9529  144.4180 O   0  0  0  0  0  0  0  0  0  0  0  0
  158.2104   46.7788  145.5492 C   0  0  0  0  0  0  0  0  0  0  0  0
  157.2818   46.0692  146.5207 C   0  0  1  0  0  0  0  0  0  0  0  0
  155.9855   46.6333  146.3813 O   0  0  0  0  0  0  0  0  0  0  0  0
  157.1196   44.5702  146.3025 C   0  0  1  0  0  0  0  0  0  0  0  0
  157.8730   43.8614  147.2754 O   0  0  0  0  0  0  0  0  0  0  0  0
  155.6522   44.3307  146.5789 C   0  0  1  0  0  0  0  0  0  0  0  0
  155.4667   44.0374  147.9651 O   0  0  0  0  0  0  0  0  0  0  0  0
  154.9713   45.6425  146.3166 C   0  0  2  0  0  0  0  0  0  0  0  0
  154.4056   45.6320  144.9467 N   0  0  0  0  0  0  0  0  0  0  0  0
  155.0162   46.0983  143.8434 C   0  0  0  0  0  0  0  0  0  0  0  0
  154.2184   45.9517  142.7584 N   0  0  0  0  0  0  0  0  0  0  0  0
  153.0689   45.3810  143.1606 C   0  0  0  0  0  0  0  0  0  0  0  0
  151.8049   44.9490  142.5189 C   0  0  0  0  0  0  0  0  0  0  0  0
  151.6354   45.1065  141.2859 O   0  0  0  0  0  0  0  0  0  0  0  0
  150.8623   44.3935  143.2995 N   0  0  0  0  0  0  0  0  0  0  0  0
  151.0485   44.2281  144.6228 C   0  0  0  0  0  0  0  0  0  0  0  0
  150.0674   43.6588  145.3580 N   0  0  0  0  0  0  0  0  0  0  0  0
  152.1759   44.5995  145.2707 N   0  0  0  0  0  0  0  0  0  0  0  0
  153.2022   45.1716  144.6056 C   0  0  0  0  0  0  0  0  0  0  0  0
  158.1603   42.2656  147.1920 P   0  0  2  0  0  0  0  0  0  0  0  0
  156.8621   41.5412  146.9309 O   0  0  0  0  0  0  0  0  0  0  0  0
  159.0119   41.9285  148.4016 O   0  0  0  0  0  0  0  0  0  0  0  0
  159.0591   42.1451  145.8551 O   0  0  0  0  0  0  0  0  0  0  0  0
  160.4524   42.4503  145.8995 C   0  0  0  0  0  0  0  0  0  0  0  0
  161.0507   42.7386  144.5191 C   0  0  1  0  0  0  0  0  0  0  0  0
  161.1695   41.5147  143.7906 O   0  0  0  0  0  0  0  0  0  0  0  0
  160.2380   43.6942  143.6484 C   0  0  1  0  0  0  0  0  0  0  0  0
  160.6869   45.0440  143.7618 O   0  0  0  0  0  0  0  0  0  0  0  0
  160.4758   43.1426  142.2551 C   0  0  1  0  0  0  0  0  0  0  0  0
  161.6670   43.6933  141.6863 O   0  0  0  0  0  0  0  0  0  0  0  0
  160.7072   41.6580  142.4448 C   0  0  2  0  0  0  0  0  0  0  0  0
  159.4202   40.9332  142.3024 N   0  0  0  0  0  0  0  0  0  0  0  0
  158.8977   40.0749  143.2007 C   0  0  0  0  0  0  0  0  0  0  0  0
  157.6969   39.5797  142.7905 N   0  0  0  0  0  0  0  0  0  0  0  0
  157.4269   40.1344  141.5982 C   0  0  0  0  0  0  0  0  0  0  0  0
  156.3321   40.0444  140.5986 C   0  0  0  0  0  0  0  0  0  0  0  0
  155.3235   39.3274  140.7735 O   0  0  0  0  0  0  0  0  0  0  0  0
  156.4443   40.7850  139.4947 N   0  0  0  0  0  0  0  0  0  0  0  0
  157.5040   41.5752  139.2632 C   0  0  0  0  0  0  0  0  0  0  0  0
  157.5201   42.2657  138.1133 N   0  0  0  0  0  0  0  0  0  0  0  0
  158.5440   41.7039  140.1200 N   0  0  0  0  0  0  0  0  0  0  0  0
  158.5652   41.0210  141.2838 C   0  0  0  0  0  0  0  0  0  0  0  0
  1  3  2  6  0  0  0
  1 32  1  0  0  0  0
  1  2  1  0  0  0  0
  1  4  1  0  0  0  0
  4  5  1  0  0  0  0
  6  5  1  6  0  0  0
  7  6  1  0  0  0  0
  8  6  1  0  0  0  0
  8 10  1  0  0  0  0
  8  9  1  1  0  0  0
 10 11  1  1  0  0  0
 12 13  1  6  0  0  0
 12  7  1  0  0  0  0
 12 10  1  0  0  0  0
 14 13  1  0  0  0  0
 15 16  1  0  0  0  0
 15 14  2  0  0  0  0
 16 23  2  0  0  0  0
 17 16  1  0  0  0  0
 17 19  1  0  0  0  0
 18 17  2  0  0  0  0
 19 20  2  0  0  0  0
 20 22  1  0  0  0  0
 20 21  1  0  0  0  0
 23 13  1  0  0  0  0
 23 22  1  0  0  0  0
 24 25  2  6  0  0  0
 24  9  1  0  0  0  0
 24 26  1  0  0  0  0
 27 28  1  0  0  0  0
 27 24  1  0  0  0  0
 29 30  1  6  0  0  0
 29 28  1  0  0  0  0
 31 32  1  6  0  0  0
 31 29  1  0  0  0  0
 33 34  1  1  0  0  0
 33 35  1  0  0  0  0
 33 31  1  0  0  0  0
 35 36  1  1  0  0  0
 35 30  1  0  0  0  0
 36 37  1  0  0  0  0
 38 37  2  0  0  0  0
 39 38  1  0  0  0  0
 40 41  2  0  0  0  0
 40 39  1  0  0  0  0
 42 40  1  0  0  0  0
 43 42  2  0  0  0  0
 43 45  1  0  0  0  0
 44 43  1  0  0  0  0
 45 46  1  0  0  0  0
 46 39  2  0  0  0  0
 46 36  1  0  0  0  0
M  END
>  <CHROM.1>
21.66416840,-11.62080231,157.14963213,43.58896489,143.91726835,-0.35472596
-0.16210859,1.00675070

>  <Name>
lig.pdb

>  <RI>
0

>  <Rbt.Current_Directory>
/home/itssahil/PROJECTS/Mol_Feturizer/New_Systems/rnas/4yb0

>  <Rbt.Executable>
rbdock ($Id: //depot/dev/client3/rdock/2013.1/src/exe/rbdock.cxx#4 $)

>  <Rbt.Library>
libRbt.so (2013.1, Build901 2013/11/27)

>  <Rbt.Parameter_File>
/export/apps/rDock/src/rDock_2013.1_src/data/scripts/dock_solv.prm

>  <Rbt.Receptor>
prm/pocket_docking_2.prm

>  <SCORE>
-53.6222

>  <SCORE.INTER>
-53.5171

>  <SCORE.INTER.CONST>
1

>  <SCORE.INTER.POLAR>
0

>  <SCORE.INTER.ROT>
2

>  <SCORE.INTER.SOLV>
31.0362

>  <SCORE.INTER.VDW>
-50.9568

>  <SCORE.INTER.norm>
-1.16341

>  <SCORE.INTRA>
-0.105095

>  <SCORE.INTRA.DIHEDRAL>
-0.0190158

>  <SCORE.INTRA.DIHEDRAL.0>
4.74153

>  <SCORE.INTRA.POLAR>
0

>  <SCORE.INTRA.POLAR.0>
0

>  <SCORE.INTRA.REPUL>
0

>  <SCORE.INTRA.REPUL.0>
0

>  <SCORE.INTRA.SOLV>
0.000789167

>  <SCORE.INTRA.SOLV.lig_0>
-60.4375

>  <SCORE.INTRA.VDW>
-0.0959812

>  <SCORE.INTRA.VDW.0>
-1.83689

>  <SCORE.INTRA.norm>
-0.00228466

>  <SCORE.RESTR>
0

>  <SCORE.RESTR.CAVITY>
0

>  <SCORE.RESTR.norm>
0

>  <SCORE.SYSTEM>
0

>  <SCORE.SYSTEM.CONST>
0

>  <SCORE.SYSTEM.DIHEDRAL>
0

>  <SCORE.SYSTEM.SOLV>
0

>  <SCORE.SYSTEM.norm>
0

>  <SCORE.heavy>
46

>  <SCORE.norm>
-1.1657

>  <RMSD>
0.469

$$$$
lig.pdb
 OpenBabel11021811523D
libRbt.so/2013.1/901 2013/11/27
 46 52  0  0  0  0  0  0  0  0999 V2000
  159.6511   46.2696  143.4454 P   0  0  2  0  0  0  0  0  0  0  0  0
  160.2929   47.6062  143.7475 O   0  0  0  0  0  0  0  0  0  0  0  0
  159.1709   46.0523  142.0336 O   0  0  0  0  0  0  0  0  0  0  0  0
  158.4293   45.9685  144.4461 O   0  0  0  0  0  0  0  0  0  0  0  0
  158.1805   46.7841  145.5836 C   0  0  0  0  0  0  0  0  0  0  0  0
  157.2473   46.0659  146.5443 C   0  0  1  0  0  0  0  0  0  0  0  0
  155.9517   46.6313  146.4039 O   0  0  0  0  0  0  0  0  0  0  0  0
  157.0861   44.5689  146.3119 C   0  0  1  0  0  0  0  0  0  0  0  0
  157.8349   43.8513  147.2819 O   0  0  0  0  0  0  0  0  0  0  0  0
  155.6174   44.3270  146.5792 C   0  0  1  0  0  0  0  0  0  0  0  0
  155.4254   44.0213  147.9619 O   0  0  0  0  0  0  0  0  0  0  0  0
  154.9377   45.6412  146.3255 C   0  0  2  0  0  0  0  0  0  0  0  0
  154.3785   45.6430  144.9529 N   0  0  0  0  0  0  0  0  0  0  0  0
  154.9892   46.1304  143.8588 C   0  0  0  0  0  0  0  0  0  0  0  0
  154.1980   45.9899  142.7682 N   0  0  0  0  0  0  0  0  0  0  0  0
  153.0527   45.4019  143.1573 C   0  0  0  0  0  0  0  0  0  0  0  0
  151.7963   44.9653  142.5040 C   0  0  0  0  0  0  0  0  0  0  0  0
  151.6309   45.1375  141.2724 O   0  0  0  0  0  0  0  0  0  0  0  0
  150.8560   44.3897  143.2727 N   0  0  0  0  0  0  0  0  0  0  0  0
  151.0378   44.2086  144.5945 C   0  0  0  0  0  0  0  0  0  0  0  0
  150.0594   43.6194  145.3175 N   0  0  0  0  0  0  0  0  0  0  0  0
  152.1583   44.5831  145.2527 N   0  0  0  0  0  0  0  0  0  0  0  0
  153.1815   45.1747  144.6001 C   0  0  0  0  0  0  0  0  0  0  0  0
  158.1226   42.2563  147.1855 P   0  0  2  0  0  0  0  0  0  0  0  0
  156.8256   41.5344  146.9119 O   0  0  0  0  0  0  0  0  0  0  0  0
  158.9684   41.9084  148.3960 O   0  0  0  0  0  0  0  0  0  0  0  0
  159.0276   42.1479  145.8519 O   0  0  0  0  0  0  0  0  0  0  0  0
  160.4207   42.4525  145.9056 C   0  0  0  0  0  0  0  0  0  0  0  0
  161.0255   42.7532  144.5306 C   0  0  1  0  0  0  0  0  0  0  0  0
  161.1477   41.5359  143.7916 O   0  0  0  0  0  0  0  0  0  0  0  0
  160.2169   43.7167  143.6647 C   0  0  1  0  0  0  0  0  0  0  0  0
  160.6653   45.0653  143.7923 O   0  0  0  0  0  0  0  0  0  0  0  0
  160.4612   43.1775  142.2676 C   0  0  1  0  0  0  0  0  0  0  0  0
  161.6551   43.7333  141.7094 O   0  0  0  0  0  0  0  0  0  0  0  0
  160.6917   41.6913  142.4451 C   0  0  2  0  0  0  0  0  0  0  0  0
  159.4054   40.9679  142.2901 N   0  0  0  0  0  0  0  0  0  0  0  0
  158.9003   40.0677  143.1568 C   0  0  0  0  0  0  0  0  0  0  0  0
  157.6951   39.5861  142.7433 N   0  0  0  0  0  0  0  0  0  0  0  0
  157.4043   40.1927  141.5816 C   0  0  0  0  0  0  0  0  0  0  0  0
  156.2943   40.1430  140.5961 C   0  0  0  0  0  0  0  0  0  0  0  0
  155.2912   39.4143  140.7541 O   0  0  0  0  0  0  0  0  0  0  0  0
  156.3863   40.9331  139.5252 N   0  0  0  0  0  0  0  0  0  0  0  0
  157.4392   41.7377  139.3131 C   0  0  0  0  0  0  0  0  0  0  0  0
  157.4345   42.4794  138.1955 N   0  0  0  0  0  0  0  0  0  0  0  0
  158.4920   41.8323  140.1586 N   0  0  0  0  0  0  0  0  0  0  0  0
  158.5341   41.0977  141.2899 C   0  0  0  0  0  0  0  0  0  0  0  0
  1  3  2  6  0  0  0
  1 32  1  0  0  0  0
  1  2  1  0  0  0  0
  1  4  1  0  0  0  0
  4  5  1  0  0  0  0
  6  5  1  6  0  0  0
  7  6  1  0  0  0  0
  8  6  1  0  0  0  0
  8 10  1  0  0  0  0
  8  9  1  1  0  0  0
 10 11  1  1  0  0  0
 12 13  1  6  0  0  0
 12  7  1  0  0  0  0
 12 10  1  0  0  0  0
 14 13  1  0  0  0  0
 15 16  1  0  0  0  0
 15 14  2  0  0  0  0
 16 23  2  0  0  0  0
 17 16  1  0  0  0  0
 17 19  1  0  0  0  0
 18 17  2  0  0  0  0
 19 20  2  0  0  0  0
 20 22  1  0  0  0  0
 20 21  1  0  0  0  0
 23 13  1  0  0  0  0
 23 22  1  0  0  0  0
 24 25  2  6  0  0  0
 24  9  1  0  0  0  0
 24 26  1  0  0  0  0
 27 28  1  0  0  0  0
 27 24  1  0  0  0  0
 29 30  1  6  0  0  0
 29 28  1  0  0  0  0
 31 32  1  6  0  0  0
 31 29  1  0  0  0  0
 33 34  1  1  0  0  0
 33 35  1  0  0  0  0
 33 31  1  0  0  0  0
 35 36  1  1  0  0  0
 35 30  1  0  0  0  0
 36 37  1  0  0  0  0
 38 37  2  0  0  0  0
 39 38  1  0  0  0  0
 40 41  2  0  0  0  0
 40 39  1  0  0  0  0
 42 40  1  0  0  0  0
 43 42  2  0  0  0  0
 43 45  1  0  0  0  0
 44 43  1  0  0  0  0
 45 46  1  0  0  0  0
 46 39  2  0  0  0  0
 46 36  1  0  0  0  0
M  END
>  <CHROM.1>
21.01367270,-14.00944295,157.12260728,43.61544257,143.92381253,-0.32793193
-0.16398161,1.01972476

>  <Name>
lig.pdb

>  <RI>
0

>  <Rbt.Current_Directory>
/home/itssahil/PROJECTS/Mol_Feturizer/New_Systems/rnas/4yb0

>  <Rbt.Executable>
rbdock ($Id: //depot/dev/client3/rdock/2013.1/src/exe/rbdock.cxx#4 $)

>  <Rbt.Library>
libRbt.so (2013.1, Build901 2013/11/27)

>  <Rbt.Parameter_File>
/export/apps/rDock/src/rDock_2013.1_src/data/scripts/dock_solv.prm

>  <Rbt.Receptor>
prm/pocket_docking_3.prm

>  <SCORE>
-53.5972

>  <SCORE.INTER>
-53.5093

>  <SCORE.INTER.CONST>
1

>  <SCORE.INTER.POLAR>
0

>  <SCORE.INTER.ROT>
2

>  <SCORE.INTER.SOLV>
31.0062

>  <SCORE.INTER.VDW>
-50.9416

>  <SCORE.INTER.norm>
-1.16325

>  <SCORE.INTRA>
-0.0879119

>  <SCORE.INTRA.DIHEDRAL>
-0.024122

>  <SCORE.INTRA.DIHEDRAL.0>
4.74153

>  <SCORE.INTRA.POLAR>
0

>  <SCORE.INTRA.POLAR.0>
0

>  <SCORE.INTRA.REPUL>
0

>  <SCORE.INTRA.REPUL.0>
0

>  <SCORE.INTRA.SOLV>
-0.00685307

>  <SCORE.INTRA.SOLV.lig_0>
-60.4375

>  <SCORE.INTRA.VDW>
-0.0724244

>  <SCORE.INTRA.VDW.0>
-1.83689

>  <SCORE.INTRA.norm>
-0.00191113

>  <SCORE.RESTR>
0

>  <SCORE.RESTR.CAVITY>
0

>  <SCORE.RESTR.norm>
0

>  <SCORE.SYSTEM>
0

>  <SCORE.SYSTEM.CONST>
0

>  <SCORE.SYSTEM.DIHEDRAL>
0

>  <SCORE.SYSTEM.SOLV>
0

>  <SCORE.SYSTEM.norm>
0

>  <SCORE.heavy>
46

>  <SCORE.norm>
-1.16516

>  <RMSD>
0.469

$$$$
lig.pdb
 OpenBabel11021811523D
libRbt.so/2013.1/901 2013/11/27
 46 52  0  0  0  0  0  0  0  0999 V2000
  159.6519   46.2521  143.4345 P   0  0  2  0  0  0  0  0  0  0  0  0
  160.2903   47.5925  143.7271 O   0  0  0  0  0  0  0  0  0  0  0  0
  159.1641   46.0270  142.0265 O   0  0  0  0  0  0  0  0  0  0  0  0
  158.4372   45.9505  144.4437 O   0  0  0  0  0  0  0  0  0  0  0  0
  158.1920   46.7700  145.5792 C   0  0  0  0  0  0  0  0  0  0  0  0
  157.2674   46.0523  146.5485 C   0  0  1  0  0  0  0  0  0  0  0  0
  155.9688   46.6121  146.4134 O   0  0  0  0  0  0  0  0  0  0  0  0
  157.1106   44.5538  146.3234 C   0  0  1  0  0  0  0  0  0  0  0  0
  157.8681   43.8432  147.2919 O   0  0  0  0  0  0  0  0  0  0  0  0
  155.6446   44.3073  146.6005 C   0  0  1  0  0  0  0  0  0  0  0  0
  155.4620   44.0067  147.9856 O   0  0  0  0  0  0  0  0  0  0  0  0
  154.9583   45.6177  146.3453 C   0  0  2  0  0  0  0  0  0  0  0  0
  154.3909   45.6115  144.9761 N   0  0  0  0  0  0  0  0  0  0  0  0
  155.0052   46.0696  143.8714 C   0  0  0  0  0  0  0  0  0  0  0  0
  154.2046   45.9303  142.7876 N   0  0  0  0  0  0  0  0  0  0  0  0
  153.0493   45.3728  143.1919 C   0  0  0  0  0  0  0  0  0  0  0  0
  151.7799   44.9539  142.5524 C   0  0  0  0  0  0  0  0  0  0  0  0
  151.6107   45.1116  141.3193 O   0  0  0  0  0  0  0  0  0  0  0  0
  150.8321   44.4099  143.3349 N   0  0  0  0  0  0  0  0  0  0  0  0
  151.0181   44.2443  144.6581 C   0  0  0  0  0  0  0  0  0  0  0  0
  150.0316   43.6869  145.3953 N   0  0  0  0  0  0  0  0  0  0  0  0
  152.1502   44.6042  145.3042 N   0  0  0  0  0  0  0  0  0  0  0  0
  153.1820   45.1640  144.6371 C   0  0  0  0  0  0  0  0  0  0  0  0
  158.1614   42.2489  147.2005 P   0  0  2  0  0  0  0  0  0  0  0  0
  156.8656   41.5208  146.9377 O   0  0  0  0  0  0  0  0  0  0  0  0
  159.0157   41.9094  148.4075 O   0  0  0  0  0  0  0  0  0  0  0  0
  159.0588   42.1383  145.8620 O   0  0  0  0  0  0  0  0  0  0  0  0
  160.4510   42.4486  145.9061 C   0  0  0  0  0  0  0  0  0  0  0  0
  161.0465   42.7457  144.5263 C   0  0  1  0  0  0  0  0  0  0  0  0
  161.1690   41.5258  143.7917 O   0  0  0  0  0  0  0  0  0  0  0  0
  160.2289   43.7024  143.6612 C   0  0  1  0  0  0  0  0  0  0  0  0
  160.6728   45.0533  143.7804 O   0  0  0  0  0  0  0  0  0  0  0  0
  160.4670   43.1583  142.2649 C   0  0  1  0  0  0  0  0  0  0  0  0
  161.6554   43.7162  141.6973 O   0  0  0  0  0  0  0  0  0  0  0  0
  160.7044   41.6737  142.4473 C   0  0  2  0  0  0  0  0  0  0  0  0
  159.4200   40.9447  142.3031 N   0  0  0  0  0  0  0  0  0  0  0  0
  158.8982   40.0861  143.2015 C   0  0  0  0  0  0  0  0  0  0  0  0
  157.6999   39.5865  142.7893 N   0  0  0  0  0  0  0  0  0  0  0  0
  157.4308   40.1386  141.5956 C   0  0  0  0  0  0  0  0  0  0  0  0
  156.3386   40.0437  140.5937 C   0  0  0  0  0  0  0  0  0  0  0  0
  155.3318   39.3238  140.7674 O   0  0  0  0  0  0  0  0  0  0  0  0
  156.4509   40.7831  139.4890 N   0  0  0  0  0  0  0  0  0  0  0  0
  157.5086   41.5762  139.2586 C   0  0  0  0  0  0  0  0  0  0  0  0
  157.5250   42.2651  138.1078 N   0  0  0  0  0  0  0  0  0  0  0  0
  158.5462   41.7094  140.1176 N   0  0  0  0  0  0  0  0  0  0  0  0
  158.5670   41.0283  141.2824 C   0  0  0  0  0  0  0  0  0  0  0  0
  1  3  2  6  0  0  0
  1 32  1  0  0  0  0
  1  2  1  0  0  0  0
  1  4  1  0  0  0  0
  4  5  1  0  0  0  0
  6  5  1  6  0  0  0
  7  6  1  0  0  0  0
  8  6  1  0  0  0  0
  8 10  1  0  0  0  0
  8  9  1  1  0  0  0
 10 11  1  1  0  0  0
 12 13  1  6  0  0  0
 12  7  1  0  0  0  0
 12 10  1  0  0  0  0
 14 13  1  0  0  0  0
 15 16  1  0  0  0  0
 15 14  2  0  0  0  0
 16 23  2  0  0  0  0
 17 16  1  0  0  0  0
 17 19  1  0  0  0  0
 18 17  2  0  0  0  0
 19 20  2  0  0  0  0
 20 22  1  0  0  0  0
 20 21  1  0  0  0  0
 23 13  1  0  0  0  0
 23 22  1  0  0  0  0
 24 25  2  6  0  0  0
 24  9  1  0  0  0  0
 24 26  1  0  0  0  0
 27 28  1  0  0  0  0
 27 24  1  0  0  0  0
 29 30  1  6  0  0  0
 29 28  1  0  0  0  0
 31 32  1  6  0  0  0
 31 29  1  0  0  0  0
 33 34  1  1  0  0  0
 33 35  1  0  0  0  0
 33 31  1  0  0  0  0
 35 36  1  1  0  0  0
 35 30  1  0  0  0  0
 36 37  1  0  0  0  0
 38 37  2  0  0  0  0
 39 38  1  0  0  0  0
 40 41  2  0  0  0  0
 40 39  1  0  0  0  0
 42 40  1  0  0  0  0
 43 42  2  0  0  0  0
 43 45  1  0  0  0  0
 44 43  1  0  0  0  0
 45 46  1  0  0  0  0
 46 39  2  0  0  0  0
 46 36  1  0  0  0  0
M  END
>  <CHROM.1>
22.58644919,-11.20978706,157.14047721,43.58693192,143.93320188,-0.35968930
-0.16124518,1.01193982

>  <Name>
lig.pdb

>  <RI>
0

>  <Rbt.Current_Directory>
/home/itssahil/PROJECTS/Mol_Feturizer/New_Systems/rnas/4yb0

>  <Rbt.Executable>
rbdock ($Id: //depot/dev/client3/rdock/2013.1/src/exe/rbdock.cxx#4 $)

>  <Rbt.Library>
libRbt.so (2013.1, Build901 2013/11/27)

>  <Rbt.Parameter_File>
/export/apps/rDock/src/rDock_2013.1_src/data/scripts/dock_solv.prm

>  <Rbt.Receptor>
prm/pocket_docking_2.prm

>  <SCORE>
-53.6162

>  <SCORE.INTER>
-53.5025

>  <SCORE.INTER.CONST>
1

>  <SCORE.INTER.POLAR>
0

>  <SCORE.INTER.ROT>
2

>  <SCORE.INTER.SOLV>
31.1511

>  <SCORE.INTER.VDW>
-50.9854

>  <SCORE.INTER.norm>
-1.1631

>  <SCORE.INTRA>
-0.11366

>  <SCORE.INTRA.DIHEDRAL>
-0.0188121

>  <SCORE.INTRA.DIHEDRAL.0>
4.74153

>  <SCORE.INTRA.POLAR>
0

>  <SCORE.INTRA.POLAR.0>
0

>  <SCORE.INTRA.REPUL>
0

>  <SCORE.INTRA.REPUL.0>
0

>  <SCORE.INTRA.SOLV>
0.00380819

>  <SCORE.INTRA.SOLV.lig_0>
-60.4375

>  <SCORE.INTRA.VDW>
-0.106158

>  <SCORE.INTRA.VDW.0>
-1.83689

>  <SCORE.INTRA.norm>
-0.00247087

>  <SCORE.RESTR>
0

>  <SCORE.RESTR.CAVITY>
0

>  <SCORE.RESTR.norm>
0

>  <SCORE.SYSTEM>
0

>  <SCORE.SYSTEM.CONST>
0

>  <SCORE.SYSTEM.DIHEDRAL>
0

>  <SCORE.SYSTEM.SOLV>
0

>  <SCORE.SYSTEM.norm>
0

>  <SCORE.heavy>
46

>  <SCORE.norm>
-1.16557

>  <RMSD>
0.470

$$$$
lig.pdb
 OpenBabel11021811523D
libRbt.so/2013.1/901 2013/11/27
 46 52  0  0  0  0  0  0  0  0999 V2000
  158.6255   42.1189  147.4965 P   0  0  2  0  0  0  0  0  0  0  0  0
  159.5301   41.4053  148.4773 O   0  0  0  0  0  0  0  0  0  0  0  0
  157.2296   41.5725  147.3412 O   0  0  0  0  0  0  0  0  0  0  0  0
  159.2979   42.2070  146.0387 O   0  0  0  0  0  0  0  0  0  0  0  0
  160.6556   41.8450  145.8223 C   0  0  0  0  0  0  0  0  0  0  0  0
  161.1311   42.3867  144.4843 C   0  0  1  0  0  0  0  0  0  0  0  0
  161.1558   41.3101  143.5579 O   0  0  0  0  0  0  0  0  0  0  0  0
  160.2547   43.4654  143.8604 C   0  0  1  0  0  0  0  0  0  0  0  0
  160.8653   44.7359  144.0325 O   0  0  0  0  0  0  0  0  0  0  0  0
  160.2778   43.1291  142.3862 C   0  0  1  0  0  0  0  0  0  0  0  0
  161.3678   43.8056  141.7568 O   0  0  0  0  0  0  0  0  0  0  0  0
  160.5754   41.6597  142.3107 C   0  0  2  0  0  0  0  0  0  0  0  0
  159.3048   40.9131  142.1532 N   0  0  0  0  0  0  0  0  0  0  0  0
  158.7972   40.0356  143.0363 C   0  0  0  0  0  0  0  0  0  0  0  0
  157.6306   39.5199  142.5798 N   0  0  0  0  0  0  0  0  0  0  0  0
  157.3735   40.0695  141.3796 C   0  0  0  0  0  0  0  0  0  0  0  0
  156.3043   39.9633  140.3590 C   0  0  0  0  0  0  0  0  0  0  0  0
  155.3330   39.1898  140.5386 O   0  0  0  0  0  0  0  0  0  0  0  0
  156.4174   40.7148  139.2505 N   0  0  0  0  0  0  0  0  0  0  0  0
  157.4628   41.5423  139.0618 C   0  0  0  0  0  0  0  0  0  0  0  0
  157.5219   42.2782  137.9294 N   0  0  0  0  0  0  0  0  0  0  0  0
  158.4712   41.6868  139.9511 N   0  0  0  0  0  0  0  0  0  0  0  0
  158.4824   40.9892  141.1070 C   0  0  0  0  0  0  0  0  0  0  0  0
  160.1015   46.1391  143.7428 P   0  0  2  0  0  0  0  0  0  0  0  0
  159.4425   46.0738  142.3864 O   0  0  0  0  0  0  0  0  0  0  0  0
  161.0968   47.2351  144.0743 O   0  0  0  0  0  0  0  0  0  0  0  0
  158.9274   46.1295  144.8522 O   0  0  0  0  0  0  0  0  0  0  0  0
  159.2138   46.4994  146.2004 C   0  0  0  0  0  0  0  0  0  0  0  0
  158.1595   46.0080  147.1973 C   0  0  1  0  0  0  0  0  0  0  0  0
  156.9732   46.7925  147.0557 O   0  0  0  0  0  0  0  0  0  0  0  0
  157.7454   44.5473  147.0336 C   0  0  1  0  0  0  0  0  0  0  0  0
  158.4845   43.6763  147.8888 O   0  0  0  0  0  0  0  0  0  0  0  0
  156.2762   44.5842  147.4105 C   0  0  1  0  0  0  0  0  0  0  0  0
  156.1095   44.4366  148.8234 O   0  0  0  0  0  0  0  0  0  0  0  0
  155.8010   45.9735  147.0397 C   0  0  2  0  0  0  0  0  0  0  0  0
  155.2485   45.9576  145.6625 N   0  0  0  0  0  0  0  0  0  0  0  0
  155.8598   46.4447  144.5645 C   0  0  0  0  0  0  0  0  0  0  0  0
  155.1044   46.2716  143.4444 N   0  0  0  0  0  0  0  0  0  0  0  0
  153.9756   45.6501  143.8207 C   0  0  0  0  0  0  0  0  0  0  0  0
  152.7390   45.1760  143.1484 C   0  0  0  0  0  0  0  0  0  0  0  0
  152.5593   45.2940  141.9173 O   0  0  0  0  0  0  0  0  0  0  0  0
  151.8143   44.5847  143.9068 N   0  0  0  0  0  0  0  0  0  0  0  0
  151.9626   44.4285  145.2313 C   0  0  0  0  0  0  0  0  0  0  0  0
  150.9633   43.8324  145.8987 N   0  0  0  0  0  0  0  0  0  0  0  0
  153.0546   44.8410  145.9167 N   0  0  0  0  0  0  0  0  0  0  0  0
  154.0774   45.4492  145.2801 C   0  0  0  0  0  0  0  0  0  0  0  0
  1  3  2  6  0  0  0
  1 32  1  0  0  0  0
  1  2  1  0  0  0  0
  1  4  1  0  0  0  0
  4  5  1  0  0  0  0
  6  5  1  1  0  0  0
  7  6  1  0  0  0  0
  8  6  1  0  0  0  0
  8 10  1  0  0  0  0
  8  9  1  6  0  0  0
 10 11  1  6  0  0  0
 12 13  1  1  0  0  0
 12  7  1  0  0  0  0
 12 10  1  0  0  0  0
 14 13  1  0  0  0  0
 15 16  1  0  0  0  0
 15 14  2  0  0  0  0
 16 23  2  0  0  0  0
 17 16  1  0  0  0  0
 17 19  1  0  0  0  0
 18 17  2  0  0  0  0
 19 20  2  0  0  0  0
 20 22  1  0  0  0  0
 20 21  1  0  0  0  0
 23 13  1  0  0  0  0
 23 22  1  0  0  0  0
 24 25  2  6  0  0  0
 24  9  1  0  0  0  0
 24 26  1  0  0  0  0
 27 28  1  0  0  0  0
 27 24  1  0  0  0  0
 29 30  1  6  0  0  0
 29 28  1  0  0  0  0
 31 32  1  1  0  0  0
 31 29  1  0  0  0  0
 33 34  1  1  0  0  0
 33 35  1  0  0  0  0
 33 31  1  0  0  0  0
 35 36  1  6  0  0  0
 35 30  1  0  0  0  0
 36 37  1  0  0  0  0
 38 37  2  0  0  0  0
 39 38  1  0  0  0  0
 40 41  2  0  0  0  0
 40 39  1  0  0  0  0
 42 40  1  0  0  0  0
 43 42  2  0  0  0  0
 43 45  1  0  0  0  0
 44 43  1  0  0  0  0
 45 46  1  0  0  0  0
 46 39  2  0  0  0  0
 46 36  1  0  0  0  0
M  END
>  <CHROM.1>
-0.91881337,10.04850537,157.56165071,43.58714719,144.21183803,-2.13137321
0.18242048,-2.11948530

>  <Name>
lig.pdb

>  <RI>
0

>  <Rbt.Current_Directory>
/home/itssahil/PROJECTS/Mol_Feturizer/New_Systems/rnas/4yb0

>  <Rbt.Executable>
rbdock ($Id: //depot/dev/client3/rdock/2013.1/src/exe/rbdock.cxx#4 $)

>  <Rbt.Library>
libRbt.so (2013.1, Build901 2013/11/27)

>  <Rbt.Parameter_File>
/export/apps/rDock/src/rDock_2013.1_src/data/scripts/dock_solv.prm

>  <Rbt.Receptor>
prm/pocket_docking_4.prm

>  <SCORE>
-50.5633

>  <SCORE.INTER>
-50.5928

>  <SCORE.INTER.CONST>
1

>  <SCORE.INTER.POLAR>
0

>  <SCORE.INTER.ROT>
2

>  <SCORE.INTER.SOLV>
29.0817

>  <SCORE.INTER.VDW>
-48.3558

>  <SCORE.INTER.norm>
-1.09984

>  <SCORE.INTRA>
0.0295742

>  <SCORE.INTRA.DIHEDRAL>
0.088623

>  <SCORE.INTRA.DIHEDRAL.0>
4.74153

>  <SCORE.INTRA.POLAR>
0

>  <SCORE.INTRA.POLAR.0>
0

>  <SCORE.INTRA.REPUL>
0

>  <SCORE.INTRA.REPUL.0>
0

>  <SCORE.INTRA.SOLV>
0.111689

>  <SCORE.INTRA.SOLV.lig_0>
-60.4375

>  <SCORE.INTRA.VDW>
-0.0705819

>  <SCORE.INTRA.VDW.0>
-1.83689

>  <SCORE.INTRA.norm>
0.000642917

>  <SCORE.RESTR>
0

>  <SCORE.RESTR.CAVITY>
0

>  <SCORE.RESTR.norm>
0

>  <SCORE.SYSTEM>
0

>  <SCORE.SYSTEM.CONST>
0

>  <SCORE.SYSTEM.DIHEDRAL>
0

>  <SCORE.SYSTEM.SOLV>
0

>  <SCORE.SYSTEM.norm>
0

>  <SCORE.heavy>
46

>  <SCORE.norm>
-1.0992

>  <RMSD>
0.470

$$$$
lig.pdb
 OpenBabel11021811523D
libRbt.so/2013.1/901 2013/11/27
 46 52  0  0  0  0  0  0  0  0999 V2000
  158.5858   42.1100  147.5262 P   0  0  2  0  0  0  0  0  0  0  0  0
  159.4866   41.3934  148.5083 O   0  0  0  0  0  0  0  0  0  0  0  0
  157.1882   41.5685  147.3691 O   0  0  0  0  0  0  0  0  0  0  0  0
  159.2606   42.1957  146.0693 O   0  0  0  0  0  0  0  0  0  0  0  0
  160.6172   41.8290  145.8548 C   0  0  0  0  0  0  0  0  0  0  0  0
  161.0965   42.3690  144.5174 C   0  0  1  0  0  0  0  0  0  0  0  0
  161.1187   41.2922  143.5911 O   0  0  0  0  0  0  0  0  0  0  0  0
  160.2247   43.4506  143.8923 C   0  0  1  0  0  0  0  0  0  0  0  0
  160.8394   44.7190  144.0651 O   0  0  0  0  0  0  0  0  0  0  0  0
  160.2486   43.1141  142.4181 C   0  0  1  0  0  0  0  0  0  0  0  0
  161.3418   43.7868  141.7901 O   0  0  0  0  0  0  0  0  0  0  0  0
  160.5413   41.6437  142.3431 C   0  0  2  0  0  0  0  0  0  0  0  0
  159.2682   40.9015  142.1840 N   0  0  0  0  0  0  0  0  0  0  0  0
  158.7582   40.0232  143.0647 C   0  0  0  0  0  0  0  0  0  0  0  0
  157.5899   39.5123  142.6072 N   0  0  0  0  0  0  0  0  0  0  0  0
  157.3341   40.0661  141.4086 C   0  0  0  0  0  0  0  0  0  0  0  0
  156.2643   39.9660  140.3880 C   0  0  0  0  0  0  0  0  0  0  0  0
  155.2907   39.1951  140.5658 O   0  0  0  0  0  0  0  0  0  0  0  0
  156.3794   40.7203  139.2815 N   0  0  0  0  0  0  0  0  0  0  0  0
  157.4273   41.5450  139.0948 C   0  0  0  0  0  0  0  0  0  0  0  0
  157.4883   42.2839  137.9645 N   0  0  0  0  0  0  0  0  0  0  0  0
  158.4364   41.6839  139.9843 N   0  0  0  0  0  0  0  0  0  0  0  0
  158.4458   40.9831  141.1382 C   0  0  0  0  0  0  0  0  0  0  0  0
  160.0809   46.1248  143.7742 P   0  0  2  0  0  0  0  0  0  0  0  0
  159.4236   46.0617  142.4170 O   0  0  0  0  0  0  0  0  0  0  0  0
  161.0796   47.2174  144.1070 O   0  0  0  0  0  0  0  0  0  0  0  0
  158.9053   46.1194  144.8821 O   0  0  0  0  0  0  0  0  0  0  0  0
  159.1911   46.4883  146.2306 C   0  0  0  0  0  0  0  0  0  0  0  0
  158.1337   46.0007  147.2261 C   0  0  1  0  0  0  0  0  0  0  0  0
  156.9504   46.7894  147.0828 O   0  0  0  0  0  0  0  0  0  0  0  0
  157.7148   44.5414  147.0620 C   0  0  1  0  0  0  0  0  0  0  0  0
  158.4497   43.6679  147.9182 O   0  0  0  0  0  0  0  0  0  0  0  0
  156.2452   44.5834  147.4368 C   0  0  1  0  0  0  0  0  0  0  0  0
  156.0760   44.4365  148.8495 O   0  0  0  0  0  0  0  0  0  0  0  0
  155.7754   45.9744  147.0653 C   0  0  2  0  0  0  0  0  0  0  0  0
  155.2247   45.9603  145.6874 N   0  0  0  0  0  0  0  0  0  0  0  0
  155.8341   46.4557  144.5920 C   0  0  0  0  0  0  0  0  0  0  0  0
  155.0813   46.2821  143.4703 N   0  0  0  0  0  0  0  0  0  0  0  0
  153.9561   45.6517  143.8427 C   0  0  0  0  0  0  0  0  0  0  0  0
  152.7235   45.1722  143.1670 C   0  0  0  0  0  0  0  0  0  0  0  0
  152.5446   45.2939  141.9361 O   0  0  0  0  0  0  0  0  0  0  0  0
  151.8017   44.5720  143.9219 N   0  0  0  0  0  0  0  0  0  0  0  0
  151.9494   44.4115  145.2460 C   0  0  0  0  0  0  0  0  0  0  0  0
  150.9531   43.8063  145.9097 N   0  0  0  0  0  0  0  0  0  0  0  0
  153.0378   44.8284  145.9344 N   0  0  0  0  0  0  0  0  0  0  0  0
  154.0574   45.4457  145.3014 C   0  0  0  0  0  0  0  0  0  0  0  0
  1  3  2  6  0  0  0
  1 32  1  0  0  0  0
  1  2  1  0  0  0  0
  1  4  1  0  0  0  0
  4  5  1  0  0  0  0
  6  5  1  1  0  0  0
  7  6  1  0  0  0  0
  8  6  1  0  0  0  0
  8 10  1  0  0  0  0
  8  9  1  6  0  0  0
 10 11  1  6  0  0  0
 12 13  1  1  0  0  0
 12  7  1  0  0  0  0
 12 10  1  0  0  0  0
 14 13  1  0  0  0  0
 15 16  1  0  0  0  0
 15 14  2  0  0  0  0
 16 23  2  0  0  0  0
 17 16  1  0  0  0  0
 17 19  1  0  0  0  0
 18 17  2  0  0  0  0
 19 20  2  0  0  0  0
 20 22  1  0  0  0  0
 20 21  1  0  0  0  0
 23 13  1  0  0  0  0
 23 22  1  0  0  0  0
 24 25  2  6  0  0  0
 24  9  1  0  0  0  0
 24 26  1  0  0  0  0
 27 28  1  0  0  0  0
 27 24  1  0  0  0  0
 29 30  1  6  0  0  0
 29 28  1  0  0  0  0
 31 32  1  1  0  0  0
 31 29  1  0  0  0  0
 33 34  1  1  0  0  0
 33 35  1  0  0  0  0
 33 31  1  0  0  0  0
 35 36  1  6  0  0  0
 35 30  1  0  0  0  0
 36 37  1  0  0  0  0
 38 37  2  0  0  0  0
 39 38  1  0  0  0  0
 40 41  2  0  0  0  0
 40 39  1  0  0  0  0
 42 40  1  0  0  0  0
 43 42  2  0  0  0  0
 43 45  1  0  0  0  0
 44 43  1  0  0  0  0
 45 46  1  0  0  0  0
 46 39  2  0  0  0  0
 46 36  1  0  0  0  0
M  END
>  <CHROM.1>
-1.10954160,9.43162148,157.53253518,43.57957029,144.23989962,-2.12456301
0.18386002,-2.11971339

>  <Name>
lig.pdb

>  <RI>
0

>  <Rbt.Current_Directory>
/home/itssahil/PROJECTS/Mol_Feturizer/New_Systems/rnas/4yb0

>  <Rbt.Executable>
rbdock ($Id: //depot/dev/client3/rdock/2013.1/src/exe/rbdock.cxx#4 $)

>  <Rbt.Library>
libRbt.so (2013.1, Build901 2013/11/27)

>  <Rbt.Parameter_File>
/export/apps/rDock/src/rDock_2013.1_src/data/scripts/dock_solv.prm

>  <Rbt.Receptor>
prm/pocket_docking_4.prm

>  <SCORE>
-50.4463

>  <SCORE.INTER>
-50.4793

>  <SCORE.INTER.CONST>
1

>  <SCORE.INTER.POLAR>
0

>  <SCORE.INTER.ROT>
2

>  <SCORE.INTER.SOLV>
29.114

>  <SCORE.INTER.VDW>
-48.2909

>  <SCORE.INTER.norm>
-1.09738

>  <SCORE.INTRA>
0.0330408

>  <SCORE.INTRA.DIHEDRAL>
0.0873619

>  <SCORE.INTRA.DIHEDRAL.0>
4.74153

>  <SCORE.INTRA.POLAR>
0

>  <SCORE.INTRA.POLAR.0>
0

>  <SCORE.INTRA.REPUL>
0

>  <SCORE.INTRA.REPUL.0>
0

>  <SCORE.INTRA.SOLV>
0.111432

>  <SCORE.INTRA.SOLV.lig_0>
-60.4375

>  <SCORE.INTRA.VDW>
-0.0663562

>  <SCORE.INTRA.VDW.0>
-1.83689

>  <SCORE.INTRA.norm>
0.000718278

>  <SCORE.RESTR>
0

>  <SCORE.RESTR.CAVITY>
0

>  <SCORE.RESTR.norm>
0

>  <SCORE.SYSTEM>
0

>  <SCORE.SYSTEM.CONST>
0

>  <SCORE.SYSTEM.DIHEDRAL>
0

>  <SCORE.SYSTEM.SOLV>
0

>  <SCORE.SYSTEM.norm>
0

>  <SCORE.heavy>
46

>  <SCORE.norm>
-1.09666

>  <RMSD>
0.470

$$$$
lig.pdb
 OpenBabel11021811523D
libRbt.so/2013.1/901 2013/11/27
 46 52  0  0  0  0  0  0  0  0999 V2000
  158.6248   42.1334  147.5056 P   0  0  2  0  0  0  0  0  0  0  0  0
  159.5293   41.4226  148.4886 O   0  0  0  0  0  0  0  0  0  0  0  0
  157.2298   41.5849  147.3497 O   0  0  0  0  0  0  0  0  0  0  0  0
  159.2987   42.2200  146.0485 O   0  0  0  0  0  0  0  0  0  0  0  0
  160.6571   41.8595  145.8341 C   0  0  0  0  0  0  0  0  0  0  0  0
  161.1334   42.3997  144.4958 C   0  0  1  0  0  0  0  0  0  0  0  0
  161.1606   41.3216  143.5712 O   0  0  0  0  0  0  0  0  0  0  0  0
  160.2563   43.4762  143.8692 C   0  0  1  0  0  0  0  0  0  0  0  0
  160.8650   44.7478  144.0399 O   0  0  0  0  0  0  0  0  0  0  0  0
  160.2814   43.1375  142.3956 C   0  0  1  0  0  0  0  0  0  0  0  0
  161.3712   43.8145  141.7662 O   0  0  0  0  0  0  0  0  0  0  0  0
  160.5811   41.6684  142.3227 C   0  0  2  0  0  0  0  0  0  0  0  0
  159.3116   40.9199  142.1651 N   0  0  0  0  0  0  0  0  0  0  0  0
  158.8010   40.0479  143.0519 C   0  0  0  0  0  0  0  0  0  0  0  0
  157.6367   39.5284  142.5941 N   0  0  0  0  0  0  0  0  0  0  0  0
  157.3841   40.0698  141.3892 C   0  0  0  0  0  0  0  0  0  0  0  0
  156.3191   39.9560  140.3650 C   0  0  0  0  0  0  0  0  0  0  0  0
  155.3476   39.1831  140.5458 O   0  0  0  0  0  0  0  0  0  0  0  0
  156.4362   40.7003  139.2520 N   0  0  0  0  0  0  0  0  0  0  0  0
  157.4817   41.5273  139.0621 C   0  0  0  0  0  0  0  0  0  0  0  0
  157.5450   42.2557  137.9251 N   0  0  0  0  0  0  0  0  0  0  0  0
  158.4865   41.6784  139.9545 N   0  0  0  0  0  0  0  0  0  0  0  0
  158.4935   40.9885  141.1151 C   0  0  0  0  0  0  0  0  0  0  0  0
  160.0996   46.1494  143.7471 P   0  0  2  0  0  0  0  0  0  0  0  0
  159.4423   46.0811  142.3901 O   0  0  0  0  0  0  0  0  0  0  0  0
  161.0931   47.2474  144.0779 O   0  0  0  0  0  0  0  0  0  0  0  0
  158.9244   46.1401  144.8553 O   0  0  0  0  0  0  0  0  0  0  0  0
  159.2087   46.5125  146.2032 C   0  0  0  0  0  0  0  0  0  0  0  0
  158.1540   46.0214  147.1996 C   0  0  1  0  0  0  0  0  0  0  0  0
  156.9669   46.8041  147.0555 O   0  0  0  0  0  0  0  0  0  0  0  0
  157.7420   44.5598  147.0379 C   0  0  1  0  0  0  0  0  0  0  0  0
  158.4813   43.6912  147.8952 O   0  0  0  0  0  0  0  0  0  0  0  0
  156.2723   44.5954  147.4131 C   0  0  1  0  0  0  0  0  0  0  0  0
  156.1042   44.4499  148.8260 O   0  0  0  0  0  0  0  0  0  0  0  0
  155.7957   45.9835  147.0395 C   0  0  2  0  0  0  0  0  0  0  0  0
  155.2447   45.9647  145.6618 N   0  0  0  0  0  0  0  0  0  0  0  0
  155.8600   46.4436  144.5624 C   0  0  0  0  0  0  0  0  0  0  0  0
  155.1050   46.2699  143.4421 N   0  0  0  0  0  0  0  0  0  0  0  0
  153.9724   45.6561  143.8197 C   0  0  0  0  0  0  0  0  0  0  0  0
  152.7341   45.1858  143.1480 C   0  0  0  0  0  0  0  0  0  0  0  0
  152.5564   45.2995  141.9161 O   0  0  0  0  0  0  0  0  0  0  0  0
  151.8053   44.6029  143.9078 N   0  0  0  0  0  0  0  0  0  0  0  0
  151.9511   44.4516  145.2332 C   0  0  0  0  0  0  0  0  0  0  0  0
  150.9478   43.8638  145.9019 N   0  0  0  0  0  0  0  0  0  0  0  0
  153.0445   44.8611  145.9181 N   0  0  0  0  0  0  0  0  0  0  0  0
  154.0713   45.4609  145.2801 C   0  0  0  0  0  0  0  0  0  0  0  0
  1  3  2  6  0  0  0
  1 32  1  0  0  0  0
  1  2  1  0  0  0  0
  1  4  1  0  0  0  0
  4  5  1  0  0  0  0
  6  5  1  1  0  0  0
  7  6  1  0  0  0  0
  8  6  1  0  0  0  0
  8 10  1  0  0  0  0
  8  9  1  6  0  0  0
 10 11  1  6  0  0  0
 12 13  1  1  0  0  0
 12  7  1  0  0  0  0
 12 10  1  0  0  0  0
 14 13  1  0  0  0  0
 15 16  1  0  0  0  0
 15 14  2  0  0  0  0
 16 23  2  0  0  0  0
 17 16  1  0  0  0  0
 17 19  1  0  0  0  0
 18 17  2  0  0  0  0
 19 20  2  0  0  0  0
 20 22  1  0  0  0  0
 20 21  1  0  0  0  0
 23 13  1  0  0  0  0
 23 22  1  0  0  0  0
 24 25  2  6  0  0  0
 24  9  1  0  0  0  0
 24 26  1  0  0  0  0
 27 28  1  0  0  0  0
 27 24  1  0  0  0  0
 29 30  1  6  0  0  0
 29 28  1  0  0  0  0
 31 32  1  1  0  0  0
 31 29  1  0  0  0  0
 33 34  1  1  0  0  0
 33 35  1  0  0  0  0
 33 31  1  0  0  0  0
 35 36  1  6  0  0  0
 35 30  1  0  0  0  0
 36 37  1  0  0  0  0
 38 37  2  0  0  0  0
 39 38  1  0  0  0  0
 40 41  2  0  0  0  0
 40 39  1  0  0  0  0
 42 40  1  0  0  0  0
 43 42  2  0  0  0  0
 43 45  1  0  0  0  0
 44 43  1  0  0  0  0
 45 46  1  0  0  0  0
 46 39  2  0  0  0  0
 46 36  1  0  0  0  0
M  END
>  <CHROM.1>
-0.58370294,10.46574179,157.56259187,43.59554438,144.21701284,-2.13506574
0.18316825,-2.12108733

>  <Name>
lig.pdb

>  <RI>
0

>  <Rbt.Current_Directory>
/home/itssahil/PROJECTS/Mol_Feturizer/New_Systems/rnas/4yb0

>  <Rbt.Executable>
rbdock ($Id: //depot/dev/client3/rdock/2013.1/src/exe/rbdock.cxx#4 $)

>  <Rbt.Library>
libRbt.so (2013.1, Build901 2013/11/27)

>  <Rbt.Parameter_File>
/export/apps/rDock/src/rDock_2013.1_src/data/scripts/dock_solv.prm

>  <Rbt.Receptor>
prm/pocket_docking_4.prm

>  <SCORE>
-50.5165

>  <SCORE.INTER>
-50.5414

>  <SCORE.INTER.CONST>
1

>  <SCORE.INTER.POLAR>
0

>  <SCORE.INTER.ROT>
2

>  <SCORE.INTER.SOLV>
29.0734

>  <SCORE.INTER.VDW>
-48.3188

>  <SCORE.INTER.norm>
-1.09873

>  <SCORE.INTRA>
0.0249489

>  <SCORE.INTRA.DIHEDRAL>
0.0889648

>  <SCORE.INTRA.DIHEDRAL.0>
4.74153

>  <SCORE.INTRA.POLAR>
0

>  <SCORE.INTRA.POLAR.0>
0

>  <SCORE.INTRA.REPUL>
0

>  <SCORE.INTRA.REPUL.0>
0

>  <SCORE.INTRA.SOLV>
0.111083

>  <SCORE.INTRA.SOLV.lig_0>
-60.4375

>  <SCORE.INTRA.VDW>
-0.075075

>  <SCORE.INTRA.VDW.0>
-1.83689

>  <SCORE.INTRA.norm>
0.000542368

>  <SCORE.RESTR>
0

>  <SCORE.RESTR.CAVITY>
0

>  <SCORE.RESTR.norm>
0

>  <SCORE.SYSTEM>
0

>  <SCORE.SYSTEM.CONST>
0

>  <SCORE.SYSTEM.DIHEDRAL>
0

>  <SCORE.SYSTEM.SOLV>
0

>  <SCORE.SYSTEM.norm>
0

>  <SCORE.heavy>
46

>  <SCORE.norm>
-1.09818

>  <RMSD>
0.470

$$$$
lig.pdb
 OpenBabel11021811523D
libRbt.so/2013.1/901 2013/11/27
 46 52  0  0  0  0  0  0  0  0999 V2000
  159.6369   46.2561  143.4652 P   0  0  2  0  0  0  0  0  0  0  0  0
  160.2695   47.5966  143.7690 O   0  0  0  0  0  0  0  0  0  0  0  0
  159.1534   46.0393  142.0544 O   0  0  0  0  0  0  0  0  0  0  0  0
  158.4209   45.9427  144.4693 O   0  0  0  0  0  0  0  0  0  0  0  0
  158.1699   46.7530  145.6100 C   0  0  0  0  0  0  0  0  0  0  0  0
  157.2456   46.0248  146.5719 C   0  0  1  0  0  0  0  0  0  0  0  0
  155.9453   46.5808  146.4376 O   0  0  0  0  0  0  0  0  0  0  0  0
  157.0950   44.5274  146.3356 C   0  0  1  0  0  0  0  0  0  0  0  0
  157.8528   43.8127  147.3007 O   0  0  0  0  0  0  0  0  0  0  0  0
  155.6292   44.2735  146.6073 C   0  0  1  0  0  0  0  0  0  0  0  0
  155.4444   43.9623  147.9897 O   0  0  0  0  0  0  0  0  0  0  0  0
  154.9386   45.5831  146.3599 C   0  0  2  0  0  0  0  0  0  0  0  0
  154.3746   45.5847  144.9892 N   0  0  0  0  0  0  0  0  0  0  0  0
  154.9971   46.0360  143.8864 C   0  0  0  0  0  0  0  0  0  0  0  0
  154.1975   45.9071  142.8005 N   0  0  0  0  0  0  0  0  0  0  0  0
  153.0346   45.3634  143.2016 C   0  0  0  0  0  0  0  0  0  0  0  0
  151.7618   44.9604  142.5587 C   0  0  0  0  0  0  0  0  0  0  0  0
  151.5975   45.1209  141.3253 O   0  0  0  0  0  0  0  0  0  0  0  0
  150.8056   44.4274  143.3385 N   0  0  0  0  0  0  0  0  0  0  0  0
  150.9862   44.2587  144.6621 C   0  0  0  0  0  0  0  0  0  0  0  0
  149.9913   43.7129  145.3965 N   0  0  0  0  0  0  0  0  0  0  0  0
  152.1211   44.6044  145.3112 N   0  0  0  0  0  0  0  0  0  0  0  0
  153.1612   45.1521  144.6470 C   0  0  0  0  0  0  0  0  0  0  0  0
  158.1523   42.2202  147.1986 P   0  0  2  0  0  0  0  0  0  0  0  0
  156.8599   41.4893  146.9274 O   0  0  0  0  0  0  0  0  0  0  0  0
  159.0050   41.8752  148.4052 O   0  0  0  0  0  0  0  0  0  0  0  0
  159.0534   42.1226  145.8615 O   0  0  0  0  0  0  0  0  0  0  0  0
  160.4443   42.4378  145.9112 C   0  0  0  0  0  0  0  0  0  0  0  0
  161.0419   42.7471  144.5351 C   0  0  1  0  0  0  0  0  0  0  0  0
  161.1708   41.5330  143.7921 O   0  0  0  0  0  0  0  0  0  0  0  0
  160.2229   43.7069  143.6749 C   0  0  1  0  0  0  0  0  0  0  0  0
  160.6615   45.0585  143.8049 O   0  0  0  0  0  0  0  0  0  0  0  0
  160.4664   43.1738  142.2754 C   0  0  1  0  0  0  0  0  0  0  0  0
  161.6541   43.7403  141.7146 O   0  0  0  0  0  0  0  0  0  0  0  0
  160.7089   41.6889  142.4476 C   0  0  2  0  0  0  0  0  0  0  0  0
  159.4276   40.9561  142.2950 N   0  0  0  0  0  0  0  0  0  0  0  0
  158.9290   40.0548  143.1642 C   0  0  0  0  0  0  0  0  0  0  0  0
  157.7271   39.5637  142.7525 N   0  0  0  0  0  0  0  0  0  0  0  0
  157.4317   40.1650  141.5892 C   0  0  0  0  0  0  0  0  0  0  0  0
  156.3219   40.1048  140.6041 C   0  0  0  0  0  0  0  0  0  0  0  0
  155.3240   39.3696  140.7644 O   0  0  0  0  0  0  0  0  0  0  0  0
  156.4081   40.8926  139.5310 N   0  0  0  0  0  0  0  0  0  0  0  0
  157.4554   41.7039  139.3164 C   0  0  0  0  0  0  0  0  0  0  0  0
  157.4453   42.4424  138.1967 N   0  0  0  0  0  0  0  0  0  0  0  0
  158.5077   41.8082  140.1613 N   0  0  0  0  0  0  0  0  0  0  0  0
  158.5552   41.0770  141.2947 C   0  0  0  0  0  0  0  0  0  0  0  0
  1  3  2  6  0  0  0
  1 32  1  0  0  0  0
  1  2  1  0  0  0  0
  1  4  1  0  0  0  0
  4  5  1  0  0  0  0
  6  5  1  6  0  0  0
  7  6  1  0  0  0  0
  8  6  1  0  0  0  0
  8 10  1  0  0  0  0
  8  9  1  1  0  0  0
 10 11  1  1  0  0  0
 12 13  1  6  0  0  0
 12  7  1  0  0  0  0
 12 10  1  0  0  0  0
 14 13  1  0  0  0  0
 15 16  1  0  0  0  0
 15 14  2  0  0  0  0
 16 23  2  0  0  0  0
 17 16  1  0  0  0  0
 17 19  1  0  0  0  0
 18 17  2  0  0  0  0
 19 20  2  0  0  0  0
 20 22  1  0  0  0  0
 20 21  1  0  0  0  0
 23 13  1  0  0  0  0
 23 22  1  0  0  0  0
 24 25  2  6  0  0  0
 24  9  1  0  0  0  0
 24 26  1  0  0  0  0
 27 28  1  0  0  0  0
 27 24  1  0  0  0  0
 29 30  1  6  0  0  0
 29 28  1  0  0  0  0
 31 32  1  6  0  0  0
 31 29  1  0  0  0  0
 33 34  1  1  0  0  0
 33 35  1  0  0  0  0
 33 31  1  0  0  0  0
 35 36  1  1  0  0  0
 35 30  1  0  0  0  0
 36 37  1  0  0  0  0
 38 37  2  0  0  0  0
 39 38  1  0  0  0  0
 40 41  2  0  0  0  0
 40 39  1  0  0  0  0
 42 40  1  0  0  0  0
 43 42  2  0  0  0  0
 43 45  1  0  0  0  0
 44 43  1  0  0  0  0
 45 46  1  0  0  0  0
 46 39  2  0  0  0  0
 46 36  1  0  0  0  0
M  END
>  <CHROM.1>
23.56981195,-13.62914065,157.12600165,43.59252376,143.94571058,-0.33703420
-0.16471553,1.02525840

>  <Name>
lig.pdb

>  <RI>
0

>  <Rbt.Current_Directory>
/home/itssahil/PROJECTS/Mol_Feturizer/New_Systems/rnas/4yb0

>  <Rbt.Executable>
rbdock ($Id: //depot/dev/client3/rdock/2013.1/src/exe/rbdock.cxx#4 $)

>  <Rbt.Library>
libRbt.so (2013.1, Build901 2013/11/27)

>  <Rbt.Parameter_File>
/export/apps/rDock/src/rDock_2013.1_src/data/scripts/dock_solv.prm

>  <Rbt.Receptor>
prm/pocket_docking_8.prm

>  <SCORE>
-53.5773

>  <SCORE.INTER>
-53.4491

>  <SCORE.INTER.CONST>
1

>  <SCORE.INTER.POLAR>
0

>  <SCORE.INTER.ROT>
2

>  <SCORE.INTER.SOLV>
31.2517

>  <SCORE.INTER.VDW>
-50.9833

>  <SCORE.INTER.norm>
-1.16194

>  <SCORE.INTRA>
-0.128127

>  <SCORE.INTRA.DIHEDRAL>
-0.0255409

>  <SCORE.INTRA.DIHEDRAL.0>
4.74153

>  <SCORE.INTRA.POLAR>
0

>  <SCORE.INTRA.POLAR.0>
0

>  <SCORE.INTRA.REPUL>
0

>  <SCORE.INTRA.REPUL.0>
0

>  <SCORE.INTRA.SOLV>
-0.00244861

>  <SCORE.INTRA.SOLV.lig_0>
-60.4375

>  <SCORE.INTRA.VDW>
-0.114133

>  <SCORE.INTRA.VDW.0>
-1.83689

>  <SCORE.INTRA.norm>
-0.00278538

>  <SCORE.RESTR>
0

>  <SCORE.RESTR.CAVITY>
0

>  <SCORE.RESTR.norm>
0

>  <SCORE.SYSTEM>
0

>  <SCORE.SYSTEM.CONST>
0

>  <SCORE.SYSTEM.DIHEDRAL>
0

>  <SCORE.SYSTEM.SOLV>
0

>  <SCORE.SYSTEM.norm>
0

>  <SCORE.heavy>
46

>  <SCORE.norm>
-1.16472

>  <RMSD>
0.470

$$$$
lig.pdb
 OpenBabel11021811523D
libRbt.so/2013.1/901 2013/11/27
 46 52  0  0  0  0  0  0  0  0999 V2000
  159.6621   46.2278  143.4220 P   0  0  2  0  0  0  0  0  0  0  0  0
  160.3067   47.5631  143.7243 O   0  0  0  0  0  0  0  0  0  0  0  0
  159.1710   46.0161  142.0131 O   0  0  0  0  0  0  0  0  0  0  0  0
  158.4479   45.9232  144.4309 O   0  0  0  0  0  0  0  0  0  0  0  0
  158.2081   46.7346  145.5734 C   0  0  0  0  0  0  0  0  0  0  0  0
  157.2820   46.0130  146.5385 C   0  0  1  0  0  0  0  0  0  0  0  0
  155.9856   46.5794  146.4102 O   0  0  0  0  0  0  0  0  0  0  0  0
  157.1186   44.5170  146.3016 C   0  0  1  0  0  0  0  0  0  0  0  0
  157.8746   43.7955  147.2630 O   0  0  0  0  0  0  0  0  0  0  0  0
  155.6520   44.2745  146.5793 C   0  0  1  0  0  0  0  0  0  0  0  0
  155.4705   43.9636  147.9622 O   0  0  0  0  0  0  0  0  0  0  0  0
  154.9708   45.5898  146.3358 C   0  0  2  0  0  0  0  0  0  0  0  0
  154.4010   45.5970  144.9675 N   0  0  0  0  0  0  0  0  0  0  0  0
  155.0125   46.0680  143.8668 C   0  0  0  0  0  0  0  0  0  0  0  0
  154.2103   45.9386  142.7829 N   0  0  0  0  0  0  0  0  0  0  0  0
  153.0569   45.3746  143.1832 C   0  0  0  0  0  0  0  0  0  0  0  0
  151.7872   44.9600  142.5415 C   0  0  0  0  0  0  0  0  0  0  0  0
  151.6155   45.1304  141.3104 O   0  0  0  0  0  0  0  0  0  0  0  0
  150.8419   44.4058  143.3197 N   0  0  0  0  0  0  0  0  0  0  0  0
  151.0304   44.2265  144.6408 C   0  0  0  0  0  0  0  0  0  0  0  0
  150.0464   43.6593  145.3738 N   0  0  0  0  0  0  0  0  0  0  0  0
  152.1630   44.5818  145.2888 N   0  0  0  0  0  0  0  0  0  0  0  0
  153.1925   45.1507  144.6259 C   0  0  0  0  0  0  0  0  0  0  0  0
  158.1610   42.2008  147.1584 P   0  0  2  0  0  0  0  0  0  0  0  0
  156.8618   41.4803  146.8919 O   0  0  0  0  0  0  0  0  0  0  0  0
  159.0160   41.8480  148.3610 O   0  0  0  0  0  0  0  0  0  0  0  0
  159.0558   42.0971  145.8174 O   0  0  0  0  0  0  0  0  0  0  0  0
  160.4493   42.4012  145.8616 C   0  0  0  0  0  0  0  0  0  0  0  0
  161.0437   42.7069  144.4832 C   0  0  1  0  0  0  0  0  0  0  0  0
  161.1597   41.4924  143.7386 O   0  0  0  0  0  0  0  0  0  0  0  0
  160.2287   43.6739  143.6272 C   0  0  1  0  0  0  0  0  0  0  0  0
  160.6785   45.0219  143.7565 O   0  0  0  0  0  0  0  0  0  0  0  0
  160.4621   43.1401  142.2262 C   0  0  1  0  0  0  0  0  0  0  0  0
  161.6519   43.6976  141.6610 O   0  0  0  0  0  0  0  0  0  0  0  0
  160.6935   41.6531  142.3963 C   0  0  2  0  0  0  0  0  0  0  0  0
  159.4058   40.9307  142.2484 N   0  0  0  0  0  0  0  0  0  0  0  0
  158.8766   40.0754  143.1457 C   0  0  0  0  0  0  0  0  0  0  0  0
  157.6771   39.5818  142.7300 N   0  0  0  0  0  0  0  0  0  0  0  0
  157.4147   40.1345  141.5351 C   0  0  0  0  0  0  0  0  0  0  0  0
  156.3252   40.0446  140.5298 C   0  0  0  0  0  0  0  0  0  0  0  0
  155.3141   39.3301  140.7007 O   0  0  0  0  0  0  0  0  0  0  0  0
  156.4449   40.7826  139.4249 N   0  0  0  0  0  0  0  0  0  0  0  0
  157.5074   41.5701  139.1974 C   0  0  0  0  0  0  0  0  0  0  0  0
  157.5312   42.2581  138.0462 N   0  0  0  0  0  0  0  0  0  0  0  0
  158.5430   41.6985  140.0596 N   0  0  0  0  0  0  0  0  0  0  0  0
  158.5565   41.0180  141.2250 C   0  0  0  0  0  0  0  0  0  0  0  0
  1  3  2  6  0  0  0
  1 32  1  0  0  0  0
  1  2  1  0  0  0  0
  1  4  1  0  0  0  0
  4  5  1  0  0  0  0
  6  5  1  6  0  0  0
  7  6  1  0  0  0  0
  8  6  1  0  0  0  0
  8 10  1  0  0  0  0
  8  9  1  1  0  0  0
 10 11  1  1  0  0  0
 12 13  1  6  0  0  0
 12  7  1  0  0  0  0
 12 10  1  0  0  0  0
 14 13  1  0  0  0  0
 15 16  1  0  0  0  0
 15 14  2  0  0  0  0
 16 23  2  0  0  0  0
 17 16  1  0  0  0  0
 17 19  1  0  0  0  0
 18 17  2  0  0  0  0
 19 20  2  0  0  0  0
 20 22  1  0  0  0  0
 20 21  1  0  0  0  0
 23 13  1  0  0  0  0
 23 22  1  0  0  0  0
 24 25  2  6  0  0  0
 24  9  1  0  0  0  0
 24 26  1  0  0  0  0
 27 28  1  0  0  0  0
 27 24  1  0  0  0  0
 29 30  1  6  0  0  0
 29 28  1  0  0  0  0
 31 32  1  6  0  0  0
 31 29  1  0  0  0  0
 33 34  1  1  0  0  0
 33 35  1  0  0  0  0
 33 31  1  0  0  0  0
 35 36  1  1  0  0  0
 35 30  1  0  0  0  0
 36 37  1  0  0  0  0
 38 37  2  0  0  0  0
 39 38  1  0  0  0  0
 40 41  2  0  0  0  0
 40 39  1  0  0  0  0
 42 40  1  0  0  0  0
 43 42  2  0  0  0  0
 43 45  1  0  0  0  0
 44 43  1  0  0  0  0
 45 46  1  0  0  0  0
 46 39  2  0  0  0  0
 46 36  1  0  0  0  0
M  END
>  <CHROM.1>
22.19941918,-10.63398577,157.14253750,43.56504898,143.90187859,-0.36773029
-0.16206933,1.01780225

>  <Name>
lig.pdb

>  <RI>
0

>  <Rbt.Current_Directory>
/home/itssahil/PROJECTS/Mol_Feturizer/New_Systems/rnas/4yb0

>  <Rbt.Executable>
rbdock ($Id: //depot/dev/client3/rdock/2013.1/src/exe/rbdock.cxx#4 $)

>  <Rbt.Library>
libRbt.so (2013.1, Build901 2013/11/27)

>  <Rbt.Parameter_File>
/export/apps/rDock/src/rDock_2013.1_src/data/scripts/dock_solv.prm

>  <Rbt.Receptor>
prm/pocket_docking_2.prm

>  <SCORE>
-53.5468

>  <SCORE.INTER>
-53.4339

>  <SCORE.INTER.CONST>
1

>  <SCORE.INTER.POLAR>
0

>  <SCORE.INTER.ROT>
2

>  <SCORE.INTER.SOLV>
31.467

>  <SCORE.INTER.VDW>
-51.045

>  <SCORE.INTER.norm>
-1.16161

>  <SCORE.INTRA>
-0.112857

>  <SCORE.INTRA.DIHEDRAL>
-0.0169707

>  <SCORE.INTRA.DIHEDRAL.0>
4.74153

>  <SCORE.INTRA.POLAR>
0

>  <SCORE.INTRA.POLAR.0>
0

>  <SCORE.INTRA.REPUL>
0

>  <SCORE.INTRA.REPUL.0>
0

>  <SCORE.INTRA.SOLV>
0.00573514

>  <SCORE.INTRA.SOLV.lig_0>
-60.4375

>  <SCORE.INTRA.VDW>
-0.107239

>  <SCORE.INTRA.VDW.0>
-1.83689

>  <SCORE.INTRA.norm>
-0.00245341

>  <SCORE.RESTR>
0

>  <SCORE.RESTR.CAVITY>
0

>  <SCORE.RESTR.norm>
0

>  <SCORE.SYSTEM>
0

>  <SCORE.SYSTEM.CONST>
0

>  <SCORE.SYSTEM.DIHEDRAL>
0

>  <SCORE.SYSTEM.SOLV>
0

>  <SCORE.SYSTEM.norm>
0

>  <SCORE.heavy>
46

>  <SCORE.norm>
-1.16406

>  <RMSD>
0.471

$$$$
lig.pdb
 OpenBabel11021811523D
libRbt.so/2013.1/901 2013/11/27
 46 52  0  0  0  0  0  0  0  0999 V2000
  159.6516   46.2528  143.4553 P   0  0  2  0  0  0  0  0  0  0  0  0
  160.2874   47.5924  143.7571 O   0  0  0  0  0  0  0  0  0  0  0  0
  159.1661   46.0356  142.0453 O   0  0  0  0  0  0  0  0  0  0  0  0
  158.4361   45.9429  144.4611 O   0  0  0  0  0  0  0  0  0  0  0  0
  158.1881   46.7550  145.6013 C   0  0  0  0  0  0  0  0  0  0  0  0
  157.2634   46.0297  146.5649 C   0  0  1  0  0  0  0  0  0  0  0  0
  155.9640   46.5882  146.4316 O   0  0  0  0  0  0  0  0  0  0  0  0
  157.1094   44.5324  146.3303 C   0  0  1  0  0  0  0  0  0  0  0  0
  157.8668   43.8171  147.2954 O   0  0  0  0  0  0  0  0  0  0  0  0
  155.6434   44.2817  146.6040 C   0  0  1  0  0  0  0  0  0  0  0  0
  155.4596   43.9723  147.9869 O   0  0  0  0  0  0  0  0  0  0  0  0
  154.9553   45.5926  146.3560 C   0  0  2  0  0  0  0  0  0  0  0  0
  154.3897   45.5939  144.9860 N   0  0  0  0  0  0  0  0  0  0  0  0
  155.0120   46.0427  143.8820 C   0  0  0  0  0  0  0  0  0  0  0  0
  154.2109   45.9144  142.7971 N   0  0  0  0  0  0  0  0  0  0  0  0
  153.0472   45.3737  143.2001 C   0  0  0  0  0  0  0  0  0  0  0  0
  151.7727   44.9728  142.5591 C   0  0  0  0  0  0  0  0  0  0  0  0
  151.6074   45.1323  141.3257 O   0  0  0  0  0  0  0  0  0  0  0  0
  150.8162   44.4428  143.3406 N   0  0  0  0  0  0  0  0  0  0  0  0
  150.9980   44.2751  144.6641 C   0  0  0  0  0  0  0  0  0  0  0  0
  150.0027   43.7322  145.4002 N   0  0  0  0  0  0  0  0  0  0  0  0
  152.1344   44.6190  145.3116 N   0  0  0  0  0  0  0  0  0  0  0  0
  153.1750   45.1637  144.6456 C   0  0  0  0  0  0  0  0  0  0  0  0
  158.1629   42.2239  147.1946 P   0  0  2  0  0  0  0  0  0  0  0  0
  156.8686   41.4953  146.9255 O   0  0  0  0  0  0  0  0  0  0  0  0
  159.0162   41.8783  148.4005 O   0  0  0  0  0  0  0  0  0  0  0  0
  159.0623   42.1231  145.8565 O   0  0  0  0  0  0  0  0  0  0  0  0
  160.4539   42.4354  145.9044 C   0  0  0  0  0  0  0  0  0  0  0  0
  161.0506   42.7420  144.5272 C   0  0  1  0  0  0  0  0  0  0  0  0
  161.1761   41.5269  143.7853 O   0  0  0  0  0  0  0  0  0  0  0  0
  160.2326   43.7027  143.6670 C   0  0  1  0  0  0  0  0  0  0  0  0
  160.6741   45.0535  143.7951 O   0  0  0  0  0  0  0  0  0  0  0  0
  160.4734   43.1676  142.2677 C   0  0  1  0  0  0  0  0  0  0  0  0
  161.6616   43.7311  141.7051 O   0  0  0  0  0  0  0  0  0  0  0  0
  160.7131   41.6824  142.4412 C   0  0  2  0  0  0  0  0  0  0  0  0
  159.4300   40.9521  142.2908 N   0  0  0  0  0  0  0  0  0  0  0  0
  158.9041   40.0940  143.1872 C   0  0  0  0  0  0  0  0  0  0  0  0
  157.7085   39.5930  142.7691 N   0  0  0  0  0  0  0  0  0  0  0  0
  157.4453   40.1436  141.5734 C   0  0  0  0  0  0  0  0  0  0  0  0
  156.3586   40.0468  140.5657 C   0  0  0  0  0  0  0  0  0  0  0  0
  155.3515   39.3262  140.7347 O   0  0  0  0  0  0  0  0  0  0  0  0
  156.4763   40.7851  139.4609 N   0  0  0  0  0  0  0  0  0  0  0  0
  157.5346   41.5789  139.2354 C   0  0  0  0  0  0  0  0  0  0  0  0
  157.5567   42.2667  138.0840 N   0  0  0  0  0  0  0  0  0  0  0  0
  158.5674   41.7139  140.0998 N   0  0  0  0  0  0  0  0  0  0  0  0
  158.5825   41.0339  141.2655 C   0  0  0  0  0  0  0  0  0  0  0  0
  1  3  2  6  0  0  0
  1 32  1  0  0  0  0
  1  2  1  0  0  0  0
  1  4  1  0  0  0  0
  4  5  1  0  0  0  0
  6  5  1  6  0  0  0
  7  6  1  0  0  0  0
  8  6  1  0  0  0  0
  8 10  1  0  0  0  0
  8  9  1  1  0  0  0
 10 11  1  1  0  0  0
 12 13  1  6  0  0  0
 12  7  1  0  0  0  0
 12 10  1  0  0  0  0
 14 13  1  0  0  0  0
 15 16  1  0  0  0  0
 15 14  2  0  0  0  0
 16 23  2  0  0  0  0
 17 16  1  0  0  0  0
 17 19  1  0  0  0  0
 18 17  2  0  0  0  0
 19 20  2  0  0  0  0
 20 22  1  0  0  0  0
 20 21  1  0  0  0  0
 23 13  1  0  0  0  0
 23 22  1  0  0  0  0
 24 25  2  6  0  0  0
 24  9  1  0  0  0  0
 24 26  1  0  0  0  0
 27 28  1  0  0  0  0
 27 24  1  0  0  0  0
 29 30  1  6  0  0  0
 29 28  1  0  0  0  0
 31 32  1  6  0  0  0
 31 29  1  0  0  0  0
 33 34  1  1  0  0  0
 33 35  1  0  0  0  0
 33 31  1  0  0  0  0
 35 36  1  1  0  0  0
 35 30  1  0  0  0  0
 36 37  1  0  0  0  0
 38 37  2  0  0  0  0
 39 38  1  0  0  0  0
 40 41  2  0  0  0  0
 40 39  1  0  0  0  0
 42 40  1  0  0  0  0
 43 42  2  0  0  0  0
 43 45  1  0  0  0  0
 44 43  1  0  0  0  0
 45 46  1  0  0  0  0
 46 39  2  0  0  0  0
 46 36  1  0  0  0  0
M  END
>  <CHROM.1>
23.57838096,-10.73280042,157.14321551,43.58347109,143.93388108,-0.36431261
-0.16385142,1.01863886

>  <Name>
lig.pdb

>  <RI>
0

>  <Rbt.Current_Directory>
/home/itssahil/PROJECTS/Mol_Feturizer/New_Systems/rnas/4yb0

>  <Rbt.Executable>
rbdock ($Id: //depot/dev/client3/rdock/2013.1/src/exe/rbdock.cxx#4 $)

>  <Rbt.Library>
libRbt.so (2013.1, Build901 2013/11/27)

>  <Rbt.Parameter_File>
/export/apps/rDock/src/rDock_2013.1_src/data/scripts/dock_solv.prm

>  <Rbt.Receptor>
prm/pocket_docking_6.prm

>  <SCORE>
-53.5632

>  <SCORE.INTER>
-53.4216

>  <SCORE.INTER.CONST>
1

>  <SCORE.INTER.POLAR>
0

>  <SCORE.INTER.ROT>
2

>  <SCORE.INTER.SOLV>
31.3054

>  <SCORE.INTER.VDW>
-50.9828

>  <SCORE.INTER.norm>
-1.16134

>  <SCORE.INTRA>
-0.141575

>  <SCORE.INTRA.DIHEDRAL>
-0.0183725

>  <SCORE.INTRA.DIHEDRAL.0>
4.74153

>  <SCORE.INTRA.POLAR>
0

>  <SCORE.INTRA.POLAR.0>
0

>  <SCORE.INTRA.REPUL>
0

>  <SCORE.INTRA.REPUL.0>
0

>  <SCORE.INTRA.SOLV>
0.00697325

>  <SCORE.INTRA.SOLV.lig_0>
-60.4375

>  <SCORE.INTRA.VDW>
-0.135875

>  <SCORE.INTRA.VDW.0>
-1.83689

>  <SCORE.INTRA.norm>
-0.00307771

>  <SCORE.RESTR>
0

>  <SCORE.RESTR.CAVITY>
0

>  <SCORE.RESTR.norm>
0

>  <SCORE.SYSTEM>
0

>  <SCORE.SYSTEM.CONST>
0

>  <SCORE.SYSTEM.DIHEDRAL>
0

>  <SCORE.SYSTEM.SOLV>
0

>  <SCORE.SYSTEM.norm>
0

>  <SCORE.heavy>
46

>  <SCORE.norm>
-1.16442

>  <RMSD>
0.472

$$$$
lig.pdb
 OpenBabel11021811523D
libRbt.so/2013.1/901 2013/11/27
 46 52  0  0  0  0  0  0  0  0999 V2000
  158.6084   42.0872  147.4373 P   0  0  2  0  0  0  0  0  0  0  0  0
  159.4984   41.3514  148.4152 O   0  0  0  0  0  0  0  0  0  0  0  0
  157.2107   41.5527  147.2589 O   0  0  0  0  0  0  0  0  0  0  0  0
  159.2962   42.1951  145.9881 O   0  0  0  0  0  0  0  0  0  0  0  0
  160.6537   41.8279  145.7793 C   0  0  0  0  0  0  0  0  0  0  0  0
  161.1463   42.3887  144.4555 C   0  0  1  0  0  0  0  0  0  0  0  0
  161.1735   41.3275  143.5115 O   0  0  0  0  0  0  0  0  0  0  0  0
  160.2833   43.4833  143.8409 C   0  0  1  0  0  0  0  0  0  0  0  0
  160.9001   44.7468  144.0404 O   0  0  0  0  0  0  0  0  0  0  0  0
  160.3191   43.1715  142.3616 C   0  0  1  0  0  0  0  0  0  0  0  0
  161.4198   43.8512  141.7546 O   0  0  0  0  0  0  0  0  0  0  0  0
  160.6081   41.7016  142.2645 C   0  0  2  0  0  0  0  0  0  0  0  0
  159.3343   40.9661  142.0818 N   0  0  0  0  0  0  0  0  0  0  0  0
  158.8072   40.0849  142.9495 C   0  0  0  0  0  0  0  0  0  0  0  0
  157.6436   39.5821  142.4714 N   0  0  0  0  0  0  0  0  0  0  0  0
  157.4084   40.1441  141.2724 C   0  0  0  0  0  0  0  0  0  0  0  0
  156.3537   40.0549  140.2353 C   0  0  0  0  0  0  0  0  0  0  0  0
  155.3741   39.2873  140.3938 O   0  0  0  0  0  0  0  0  0  0  0  0
  156.4888   40.8152  139.1352 N   0  0  0  0  0  0  0  0  0  0  0  0
  157.5430   41.6362  138.9692 C   0  0  0  0  0  0  0  0  0  0  0  0
  157.6244   42.3815  137.8443 N   0  0  0  0  0  0  0  0  0  0  0  0
  158.5393   41.7653  139.8745 N   0  0  0  0  0  0  0  0  0  0  0  0
  158.5282   41.0576  141.0243 C   0  0  0  0  0  0  0  0  0  0  0  0
  160.1484   46.1595  143.7665 P   0  0  2  0  0  0  0  0  0  0  0  0
  159.5028   46.1212  142.4026 O   0  0  0  0  0  0  0  0  0  0  0  0
  161.1473   47.2433  144.1263 O   0  0  0  0  0  0  0  0  0  0  0  0
  158.9631   46.1392  144.8637 O   0  0  0  0  0  0  0  0  0  0  0  0
  159.2380   46.4847  146.2207 C   0  0  0  0  0  0  0  0  0  0  0  0
  158.1705   45.9837  147.1986 C   0  0  1  0  0  0  0  0  0  0  0  0
  156.9908   46.7783  147.0582 O   0  0  0  0  0  0  0  0  0  0  0  0
  157.7487   44.5287  147.0063 C   0  0  1  0  0  0  0  0  0  0  0  0
  158.4735   43.6387  147.8542 O   0  0  0  0  0  0  0  0  0  0  0  0
  156.2760   44.5690  147.3690 C   0  0  1  0  0  0  0  0  0  0  0  0
  156.0940   44.3990  148.7774 O   0  0  0  0  0  0  0  0  0  0  0  0
  155.8136   45.9674  147.0167 C   0  0  2  0  0  0  0  0  0  0  0  0
  155.2750   45.9781  145.6340 N   0  0  0  0  0  0  0  0  0  0  0  0
  155.8865   46.5082  144.5562 C   0  0  0  0  0  0  0  0  0  0  0  0
  155.1460   46.3504  143.4239 N   0  0  0  0  0  0  0  0  0  0  0  0
  154.0270   45.6951  143.7712 C   0  0  0  0  0  0  0  0  0  0  0  0
  152.8075   45.2138  143.0734 C   0  0  0  0  0  0  0  0  0  0  0  0
  152.6374   45.3622  141.8441 O   0  0  0  0  0  0  0  0  0  0  0  0
  151.8883   44.5825  143.8056 N   0  0  0  0  0  0  0  0  0  0  0  0
  152.0269   44.3927  145.1268 C   0  0  0  0  0  0  0  0  0  0  0  0
  151.0340   43.7574  145.7671 N   0  0  0  0  0  0  0  0  0  0  0  0
  153.1030   44.8089  145.8345 N   0  0  0  0  0  0  0  0  0  0  0  0
  154.1188   45.4559  145.2255 C   0  0  0  0  0  0  0  0  0  0  0  0
  1  3  2  6  0  0  0
  1 32  1  0  0  0  0
  1  2  1  0  0  0  0
  1  4  1  0  0  0  0
  4  5  1  0  0  0  0
  6  5  1  1  0  0  0
  7  6  1  0  0  0  0
  8  6  1  0  0  0  0
  8 10  1  0  0  0  0
  8  9  1  6  0  0  0
 10 11  1  6  0  0  0
 12 13  1  1  0  0  0
 12  7  1  0  0  0  0
 12 10  1  0  0  0  0
 14 13  1  0  0  0  0
 15 16  1  0  0  0  0
 15 14  2  0  0  0  0
 16 23  2  0  0  0  0
 17 16  1  0  0  0  0
 17 19  1  0  0  0  0
 18 17  2  0  0  0  0
 19 20  2  0  0  0  0
 20 22  1  0  0  0  0
 20 21  1  0  0  0  0
 23 13  1  0  0  0  0
 23 22  1  0  0  0  0
 24 25  2  6  0  0  0
 24  9  1  0  0  0  0
 24 26  1  0  0  0  0
 27 28  1  0  0  0  0
 27 24  1  0  0  0  0
 29 30  1  6  0  0  0
 29 28  1  0  0  0  0
 31 32  1  1  0  0  0
 31 29  1  0  0  0  0
 33 34  1  1  0  0  0
 33 35  1  0  0  0  0
 33 31  1  0  0  0  0
 35 36  1  6  0  0  0
 35 30  1  0  0  0  0
 36 37  1  0  0  0  0
 38 37  2  0  0  0  0
 39 38  1  0  0  0  0
 40 41  2  0  0  0  0
 40 39  1  0  0  0  0
 42 40  1  0  0  0  0
 43 42  2  0  0  0  0
 43 45  1  0  0  0  0
 44 43  1  0  0  0  0
 45 46  1  0  0  0  0
 46 39  2  0  0  0  0
 46 36  1  0  0  0  0
M  END
>  <CHROM.1>
-0.38879796,8.34164436,157.59312856,43.60667828,144.16421993,-2.10920584
0.18591397,-2.10355354

>  <Name>
lig.pdb

>  <RI>
0

>  <Rbt.Current_Directory>
/home/itssahil/PROJECTS/Mol_Feturizer/New_Systems/rnas/4yb0

>  <Rbt.Executable>
rbdock ($Id: //depot/dev/client3/rdock/2013.1/src/exe/rbdock.cxx#4 $)

>  <Rbt.Library>
libRbt.so (2013.1, Build901 2013/11/27)

>  <Rbt.Parameter_File>
/export/apps/rDock/src/rDock_2013.1_src/data/scripts/dock_solv.prm

>  <Rbt.Receptor>
prm/pocket_docking_3.prm

>  <SCORE>
-50.3921

>  <SCORE.INTER>
-50.4196

>  <SCORE.INTER.CONST>
1

>  <SCORE.INTER.POLAR>
0

>  <SCORE.INTER.ROT>
2

>  <SCORE.INTER.SOLV>
29.031

>  <SCORE.INTER.VDW>
-48.2234

>  <SCORE.INTER.norm>
-1.09608

>  <SCORE.INTRA>
0.0274869

>  <SCORE.INTRA.DIHEDRAL>
0.0825302

>  <SCORE.INTRA.DIHEDRAL.0>
4.74153

>  <SCORE.INTRA.POLAR>
0

>  <SCORE.INTRA.POLAR.0>
0

>  <SCORE.INTRA.REPUL>
0

>  <SCORE.INTRA.REPUL.0>
0

>  <SCORE.INTRA.SOLV>
0.107045

>  <SCORE.INTRA.SOLV.lig_0>
-60.4375

>  <SCORE.INTRA.VDW>
-0.0673008

>  <SCORE.INTRA.VDW.0>
-1.83689

>  <SCORE.INTRA.norm>
0.000597542

>  <SCORE.RESTR>
0

>  <SCORE.RESTR.CAVITY>
0

>  <SCORE.RESTR.norm>
0

>  <SCORE.SYSTEM>
0

>  <SCORE.SYSTEM.CONST>
0

>  <SCORE.SYSTEM.DIHEDRAL>
0

>  <SCORE.SYSTEM.SOLV>
0

>  <SCORE.SYSTEM.norm>
0

>  <SCORE.heavy>
46

>  <SCORE.norm>
-1.09548

>  <RMSD>
0.474

$$$$
lig.pdb
 OpenBabel11021811523D
libRbt.so/2013.1/901 2013/11/27
 46 52  0  0  0  0  0  0  0  0999 V2000
  159.6737   46.2571  143.5065 P   0  0  2  0  0  0  0  0  0  0  0  0
  160.3193   47.5884  143.8234 O   0  0  0  0  0  0  0  0  0  0  0  0
  159.2119   46.0489  142.0871 O   0  0  0  0  0  0  0  0  0  0  0  0
  158.4361   45.9592  144.4887 O   0  0  0  0  0  0  0  0  0  0  0  0
  158.1764   46.7714  145.6262 C   0  0  0  0  0  0  0  0  0  0  0  0
  157.2255   46.0547  146.5706 C   0  0  1  0  0  0  0  0  0  0  0  0
  155.9355   46.6288  146.4145 O   0  0  0  0  0  0  0  0  0  0  0  0
  157.0585   44.5599  146.3293 C   0  0  1  0  0  0  0  0  0  0  0  0
  157.7893   43.8335  147.3064 O   0  0  0  0  0  0  0  0  0  0  0  0
  155.5848   44.3258  146.5750 C   0  0  1  0  0  0  0  0  0  0  0  0
  155.3716   44.0153  147.9535 O   0  0  0  0  0  0  0  0  0  0  0  0
  154.9167   45.6452  146.3176 C   0  0  2  0  0  0  0  0  0  0  0  0
  154.3768   45.6564  144.9374 N   0  0  0  0  0  0  0  0  0  0  0  0
  155.0043   46.1477  143.8547 C   0  0  0  0  0  0  0  0  0  0  0  0
  154.2280   46.0158  142.7523 N   0  0  0  0  0  0  0  0  0  0  0  0
  153.0755   45.4295  143.1221 C   0  0  0  0  0  0  0  0  0  0  0  0
  151.8269   45.0008  142.4489 C   0  0  0  0  0  0  0  0  0  0  0  0
  151.6793   45.1802  141.2161 O   0  0  0  0  0  0  0  0  0  0  0  0
  150.8741   44.4240  143.2012 N   0  0  0  0  0  0  0  0  0  0  0  0
  151.0368   44.2351  144.5244 C   0  0  0  0  0  0  0  0  0  0  0  0
  150.0464   43.6452  145.2304 N   0  0  0  0  0  0  0  0  0  0  0  0
  152.1491   44.6023  145.2003 N   0  0  0  0  0  0  0  0  0  0  0  0
  153.1834   45.1940  144.5653 C   0  0  0  0  0  0  0  0  0  0  0  0
  158.0686   42.2372  147.2071 P   0  0  2  0  0  0  0  0  0  0  0  0
  156.7712   41.5244  146.9121 O   0  0  0  0  0  0  0  0  0  0  0  0
  158.8953   41.8788  148.4277 O   0  0  0  0  0  0  0  0  0  0  0  0
  158.9915   42.1289  145.8857 O   0  0  0  0  0  0  0  0  0  0  0  0
  160.3855   42.4248  145.9602 C   0  0  0  0  0  0  0  0  0  0  0  0
  161.0113   42.7277  144.5952 C   0  0  1  0  0  0  0  0  0  0  0  0
  161.1364   41.5129  143.8526 O   0  0  0  0  0  0  0  0  0  0  0  0
  160.2208   43.6998  143.7223 C   0  0  1  0  0  0  0  0  0  0  0  0
  160.6755   45.0451  143.8621 O   0  0  0  0  0  0  0  0  0  0  0  0
  160.4813   43.1653  142.3264 C   0  0  1  0  0  0  0  0  0  0  0  0
  161.6863   43.7161  141.7874 O   0  0  0  0  0  0  0  0  0  0  0  0
  160.7003   41.6769  142.5005 C   0  0  2  0  0  0  0  0  0  0  0  0
  159.4119   40.9621  142.3244 N   0  0  0  0  0  0  0  0  0  0  0  0
  158.8953   40.0520  143.1737 C   0  0  0  0  0  0  0  0  0  0  0  0
  157.6913   39.5823  142.7434 N   0  0  0  0  0  0  0  0  0  0  0  0
  157.4131   40.2069  141.5881 C   0  0  0  0  0  0  0  0  0  0  0  0
  156.3112   40.1768  140.5928 C   0  0  0  0  0  0  0  0  0  0  0  0
  155.3034   39.4508  140.7319 O   0  0  0  0  0  0  0  0  0  0  0  0
  156.4160   40.9818  139.5342 N   0  0  0  0  0  0  0  0  0  0  0  0
  157.4745   41.7842  139.3425 C   0  0  0  0  0  0  0  0  0  0  0  0
  157.4827   42.5419  138.2357 N   0  0  0  0  0  0  0  0  0  0  0  0
  158.5206   41.8615  140.1981 N   0  0  0  0  0  0  0  0  0  0  0  0
  158.5497   41.1105  141.3190 C   0  0  0  0  0  0  0  0  0  0  0  0
  1  3  2  6  0  0  0
  1 32  1  0  0  0  0
  1  2  1  0  0  0  0
  1  4  1  0  0  0  0
  4  5  1  0  0  0  0
  6  5  1  6  0  0  0
  7  6  1  0  0  0  0
  8  6  1  0  0  0  0
  8 10  1  0  0  0  0
  8  9  1  1  0  0  0
 10 11  1  1  0  0  0
 12 13  1  6  0  0  0
 12  7  1  0  0  0  0
 12 10  1  0  0  0  0
 14 13  1  0  0  0  0
 15 16  1  0  0  0  0
 15 14  2  0  0  0  0
 16 23  2  0  0  0  0
 17 16  1  0  0  0  0
 17 19  1  0  0  0  0
 18 17  2  0  0  0  0
 19 20  2  0  0  0  0
 20 22  1  0  0  0  0
 20 21  1  0  0  0  0
 23 13  1  0  0  0  0
 23 22  1  0  0  0  0
 24 25  2  6  0  0  0
 24  9  1  0  0  0  0
 24 26  1  0  0  0  0
 27 28  1  0  0  0  0
 27 24  1  0  0  0  0
 29 30  1  6  0  0  0
 29 28  1  0  0  0  0
 31 32  1  6  0  0  0
 31 29  1  0  0  0  0
 33 34  1  1  0  0  0
 33 35  1  0  0  0  0
 33 31  1  0  0  0  0
 35 36  1  1  0  0  0
 35 30  1  0  0  0  0
 36 37  1  0  0  0  0
 38 37  2  0  0  0  0
 39 38  1  0  0  0  0
 40 41  2  0  0  0  0
 40 39  1  0  0  0  0
 42 40  1  0  0  0  0
 43 42  2  0  0  0  0
 43 45  1  0  0  0  0
 44 43  1  0  0  0  0
 45 46  1  0  0  0  0
 46 39  2  0  0  0  0
 46 36  1  0  0  0  0
M  END
>  <CHROM.1>
20.83948459,-14.67211952,157.12130758,43.61822333,143.93941956,-0.31289875
-0.17630122,1.02638452

>  <Name>
lig.pdb

>  <RI>
0

>  <Rbt.Current_Directory>
/home/itssahil/PROJECTS/Mol_Feturizer/New_Systems/rnas/4yb0

>  <Rbt.Executable>
rbdock ($Id: //depot/dev/client3/rdock/2013.1/src/exe/rbdock.cxx#4 $)

>  <Rbt.Library>
libRbt.so (2013.1, Build901 2013/11/27)

>  <Rbt.Parameter_File>
/export/apps/rDock/src/rDock_2013.1_src/data/scripts/dock_solv.prm

>  <Rbt.Receptor>
prm/pocket_docking_3.prm

>  <SCORE>
-53.559

>  <SCORE.INTER>
-53.4763

>  <SCORE.INTER.CONST>
1

>  <SCORE.INTER.POLAR>
0

>  <SCORE.INTER.ROT>
2

>  <SCORE.INTER.SOLV>
30.9086

>  <SCORE.INTER.VDW>
-50.8871

>  <SCORE.INTER.norm>
-1.16253

>  <SCORE.INTRA>
-0.0827923

>  <SCORE.INTRA.DIHEDRAL>
-0.0254258

>  <SCORE.INTRA.DIHEDRAL.0>
4.74153

>  <SCORE.INTRA.POLAR>
0

>  <SCORE.INTRA.POLAR.0>
0

>  <SCORE.INTRA.REPUL>
0

>  <SCORE.INTRA.REPUL.0>
0

>  <SCORE.INTRA.SOLV>
-0.00900977

>  <SCORE.INTRA.SOLV.lig_0>
-60.4375

>  <SCORE.INTRA.VDW>
-0.0655745

>  <SCORE.INTRA.VDW.0>
-1.83689

>  <SCORE.INTRA.norm>
-0.00179983

>  <SCORE.RESTR>
0

>  <SCORE.RESTR.CAVITY>
0

>  <SCORE.RESTR.norm>
0

>  <SCORE.SYSTEM>
0

>  <SCORE.SYSTEM.CONST>
0

>  <SCORE.SYSTEM.DIHEDRAL>
0

>  <SCORE.SYSTEM.SOLV>
0

>  <SCORE.SYSTEM.norm>
0

>  <SCORE.heavy>
46

>  <SCORE.norm>
-1.16433

>  <RMSD>
0.474

$$$$
lig.pdb
 OpenBabel11021811523D
libRbt.so/2013.1/901 2013/11/27
 46 52  0  0  0  0  0  0  0  0999 V2000
  159.6363   46.2763  143.4482 P   0  0  2  0  0  0  0  0  0  0  0  0
  160.2695   47.6191  143.7405 O   0  0  0  0  0  0  0  0  0  0  0  0
  159.1528   46.0475  142.0393 O   0  0  0  0  0  0  0  0  0  0  0  0
  158.4200   45.9722  144.4548 O   0  0  0  0  0  0  0  0  0  0  0  0
  158.1692   46.7925  145.5885 C   0  0  0  0  0  0  0  0  0  0  0  0
  157.2444   46.0732  146.5565 C   0  0  1  0  0  0  0  0  0  0  0  0
  155.9444   46.6286  146.4172 O   0  0  0  0  0  0  0  0  0  0  0  0
  157.0932   44.5738  146.3331 C   0  0  1  0  0  0  0  0  0  0  0  0
  157.8504   43.8671  147.3046 O   0  0  0  0  0  0  0  0  0  0  0  0
  155.6272   44.3230  146.6069 C   0  0  1  0  0  0  0  0  0  0  0  0
  155.4420   44.0239  147.9919 O   0  0  0  0  0  0  0  0  0  0  0  0
  154.9373   45.6308  146.3480 C   0  0  2  0  0  0  0  0  0  0  0  0
  154.3734   45.6208  144.9773 N   0  0  0  0  0  0  0  0  0  0  0  0
  154.9943   46.0670  143.8715 C   0  0  0  0  0  0  0  0  0  0  0  0
  154.1954   45.9275  142.7864 N   0  0  0  0  0  0  0  0  0  0  0  0
  153.0346   45.3820  143.1911 C   0  0  0  0  0  0  0  0  0  0  0  0
  151.7634   44.9695  142.5508 C   0  0  0  0  0  0  0  0  0  0  0  0
  151.5987   45.1209  141.3164 O   0  0  0  0  0  0  0  0  0  0  0  0
  150.8093   44.4380  143.3341 N   0  0  0  0  0  0  0  0  0  0  0  0
  150.9904   44.2790  144.6589 C   0  0  0  0  0  0  0  0  0  0  0  0
  149.9976   43.7342  145.3969 N   0  0  0  0  0  0  0  0  0  0  0  0
  152.1238   44.6337  145.3057 N   0  0  0  0  0  0  0  0  0  0  0  0
  153.1618   45.1810  144.6379 C   0  0  0  0  0  0  0  0  0  0  0  0
  158.1491   42.2737  147.2163 P   0  0  2  0  0  0  0  0  0  0  0  0
  156.8564   41.5410  146.9512 O   0  0  0  0  0  0  0  0  0  0  0  0
  159.0015   41.9387  148.4259 O   0  0  0  0  0  0  0  0  0  0  0  0
  159.0503   42.1640  145.8802 O   0  0  0  0  0  0  0  0  0  0  0  0
  160.4414   42.4789  145.9274 C   0  0  0  0  0  0  0  0  0  0  0  0
  161.0394   42.7760  144.5487 C   0  0  1  0  0  0  0  0  0  0  0  0
  161.1677   41.5554  143.8162 O   0  0  0  0  0  0  0  0  0  0  0  0
  160.2210   43.7287  143.6801 C   0  0  1  0  0  0  0  0  0  0  0  0
  160.6602   45.0812  143.7985 O   0  0  0  0  0  0  0  0  0  0  0  0
  160.4644   43.1834  142.2853 C   0  0  1  0  0  0  0  0  0  0  0  0
  161.6524   43.7444  141.7198 O   0  0  0  0  0  0  0  0  0  0  0  0
  160.7061   41.6999  142.4704 C   0  0  2  0  0  0  0  0  0  0  0  0
  159.4244   40.9664  142.3240 N   0  0  0  0  0  0  0  0  0  0  0  0
  158.9253   40.0730  143.2010 C   0  0  0  0  0  0  0  0  0  0  0  0
  157.7232   39.5789  142.7933 N   0  0  0  0  0  0  0  0  0  0  0  0
  157.4283   40.1703  141.6248 C   0  0  0  0  0  0  0  0  0  0  0  0
  156.3186   40.1021  140.6401 C   0  0  0  0  0  0  0  0  0  0  0  0
  155.3203   39.3688  140.8066 O   0  0  0  0  0  0  0  0  0  0  0  0
  156.4054   40.8804  139.5602 N   0  0  0  0  0  0  0  0  0  0  0  0
  157.4530   41.6893  139.3387 C   0  0  0  0  0  0  0  0  0  0  0  0
  157.4435   42.4180  138.2126 N   0  0  0  0  0  0  0  0  0  0  0  0
  158.5053   41.8004  140.1829 N   0  0  0  0  0  0  0  0  0  0  0  0
  158.5523   41.0791  141.3225 C   0  0  0  0  0  0  0  0  0  0  0  0
  1  3  2  6  0  0  0
  1 32  1  0  0  0  0
  1  2  1  0  0  0  0
  1  4  1  0  0  0  0
  4  5  1  0  0  0  0
  6  5  1  6  0  0  0
  7  6  1  0  0  0  0
  8  6  1  0  0  0  0
  8 10  1  0  0  0  0
  8  9  1  1  0  0  0
 10 11  1  1  0  0  0
 12 13  1  6  0  0  0
 12  7  1  0  0  0  0
 12 10  1  0  0  0  0
 14 13  1  0  0  0  0
 15 16  1  0  0  0  0
 15 14  2  0  0  0  0
 16 23  2  0  0  0  0
 17 16  1  0  0  0  0
 17 19  1  0  0  0  0
 18 17  2  0  0  0  0
 19 20  2  0  0  0  0
 20 22  1  0  0  0  0
 20 21  1  0  0  0  0
 23 13  1  0  0  0  0
 23 22  1  0  0  0  0
 24 25  2  6  0  0  0
 24  9  1  0  0  0  0
 24 26  1  0  0  0  0
 27 28  1  0  0  0  0
 27 24  1  0  0  0  0
 29 30  1  6  0  0  0
 29 28  1  0  0  0  0
 31 32  1  6  0  0  0
 31 29  1  0  0  0  0
 33 34  1  1  0  0  0
 33 35  1  0  0  0  0
 33 31  1  0  0  0  0
 35 36  1  1  0  0  0
 35 30  1  0  0  0  0
 36 37  1  0  0  0  0
 38 37  2  0  0  0  0
 39 38  1  0  0  0  0
 40 41  2  0  0  0  0
 40 39  1  0  0  0  0
 42 40  1  0  0  0  0
 43 42  2  0  0  0  0
 43 45  1  0  0  0  0
 44 43  1  0  0  0  0
 45 46  1  0  0  0  0
 46 39  2  0  0  0  0
 46 36  1  0  0  0  0
M  END
>  <CHROM.1>
23.29090373,-13.62735836,157.12453623,43.61681611,143.95125151,-0.33645371
-0.16416960,1.01623756

>  <Name>
lig.pdb

>  <RI>
0

>  <Rbt.Current_Directory>
/home/itssahil/PROJECTS/Mol_Feturizer/New_Systems/rnas/4yb0

>  <Rbt.Executable>
rbdock ($Id: //depot/dev/client3/rdock/2013.1/src/exe/rbdock.cxx#4 $)

>  <Rbt.Library>
libRbt.so (2013.1, Build901 2013/11/27)

>  <Rbt.Parameter_File>
/export/apps/rDock/src/rDock_2013.1_src/data/scripts/dock_solv.prm

>  <Rbt.Receptor>
prm/pocket_docking_2.prm

>  <SCORE>
-53.6043

>  <SCORE.INTER>
-53.4783

>  <SCORE.INTER.CONST>
1

>  <SCORE.INTER.POLAR>
0

>  <SCORE.INTER.ROT>
2

>  <SCORE.INTER.SOLV>
31.0812

>  <SCORE.INTER.VDW>
-50.9459

>  <SCORE.INTER.norm>
-1.16257

>  <SCORE.INTRA>
-0.12603

>  <SCORE.INTRA.DIHEDRAL>
-0.0253235

>  <SCORE.INTRA.DIHEDRAL.0>
4.74153

>  <SCORE.INTRA.POLAR>
0

>  <SCORE.INTRA.POLAR.0>
0

>  <SCORE.INTRA.REPUL>
0

>  <SCORE.INTRA.REPUL.0>
0

>  <SCORE.INTRA.SOLV>
-0.0027474

>  <SCORE.INTRA.SOLV.lig_0>
-60.4375

>  <SCORE.INTRA.VDW>
-0.111995

>  <SCORE.INTRA.VDW.0>
-1.83689

>  <SCORE.INTRA.norm>
-0.00273978

>  <SCORE.RESTR>
0

>  <SCORE.RESTR.CAVITY>
0

>  <SCORE.RESTR.norm>
0

>  <SCORE.SYSTEM>
0

>  <SCORE.SYSTEM.CONST>
0

>  <SCORE.SYSTEM.DIHEDRAL>
0

>  <SCORE.SYSTEM.SOLV>
0

>  <SCORE.SYSTEM.norm>
0

>  <SCORE.heavy>
46

>  <SCORE.norm>
-1.16531

>  <RMSD>
0.475

$$$$
lig.pdb
 OpenBabel11021811523D
libRbt.so/2013.1/901 2013/11/27
 46 52  0  0  0  0  0  0  0  0999 V2000
  158.6318   42.1193  147.4980 P   0  0  2  0  0  0  0  0  0  0  0  0
  159.5371   41.4055  148.4781 O   0  0  0  0  0  0  0  0  0  0  0  0
  157.2355   41.5737  147.3442 O   0  0  0  0  0  0  0  0  0  0  0  0
  159.3029   42.2070  146.0396 O   0  0  0  0  0  0  0  0  0  0  0  0
  160.6602   41.8442  145.8218 C   0  0  0  0  0  0  0  0  0  0  0  0
  161.1347   42.3856  144.4834 C   0  0  1  0  0  0  0  0  0  0  0  0
  161.1579   41.3088  143.5571 O   0  0  0  0  0  0  0  0  0  0  0  0
  160.2583   43.4646  143.8602 C   0  0  1  0  0  0  0  0  0  0  0  0
  160.8696   44.7349  144.0315 O   0  0  0  0  0  0  0  0  0  0  0  0
  160.2797   43.1281  142.3860 C   0  0  1  0  0  0  0  0  0  0  0  0
  161.3694   43.8040  141.7554 O   0  0  0  0  0  0  0  0  0  0  0  0
  160.5765   41.6586  142.3104 C   0  0  2  0  0  0  0  0  0  0  0  0
  159.3053   40.9126  142.1543 N   0  0  0  0  0  0  0  0  0  0  0  0
  158.7929   40.0434  143.0427 C   0  0  0  0  0  0  0  0  0  0  0  0
  157.6273   39.5256  142.5861 N   0  0  0  0  0  0  0  0  0  0  0  0
  157.3758   40.0655  141.3802 C   0  0  0  0  0  0  0  0  0  0  0  0
  156.3104   39.9522  140.3564 C   0  0  0  0  0  0  0  0  0  0  0  0
  155.3372   39.1818  140.5387 O   0  0  0  0  0  0  0  0  0  0  0  0
  156.4291   40.6942  139.2420 N   0  0  0  0  0  0  0  0  0  0  0  0
  157.4764   41.5184  139.0504 C   0  0  0  0  0  0  0  0  0  0  0  0
  157.5411   42.2446  137.9121 N   0  0  0  0  0  0  0  0  0  0  0  0
  158.4816   41.6689  139.9424 N   0  0  0  0  0  0  0  0  0  0  0  0
  158.4872   40.9811  141.1043 C   0  0  0  0  0  0  0  0  0  0  0  0
  160.1063   46.1383  143.7424 P   0  0  2  0  0  0  0  0  0  0  0  0
  159.4459   46.0732  142.3867 O   0  0  0  0  0  0  0  0  0  0  0  0
  161.1025   47.2339  144.0728 O   0  0  0  0  0  0  0  0  0  0  0  0
  158.9333   46.1295  144.8530 O   0  0  0  0  0  0  0  0  0  0  0  0
  159.2211   46.4994  146.2009 C   0  0  0  0  0  0  0  0  0  0  0  0
  158.1676   46.0087  147.1988 C   0  0  1  0  0  0  0  0  0  0  0  0
  156.9816   46.7938  147.0583 O   0  0  0  0  0  0  0  0  0  0  0  0
  157.7526   44.5481  147.0357 C   0  0  1  0  0  0  0  0  0  0  0  0
  158.4921   43.6769  147.8903 O   0  0  0  0  0  0  0  0  0  0  0  0
  156.2837   44.5858  147.4140 C   0  0  1  0  0  0  0  0  0  0  0  0
  156.1183   44.4385  148.8271 O   0  0  0  0  0  0  0  0  0  0  0  0
  155.8089   45.9754  147.0435 C   0  0  2  0  0  0  0  0  0  0  0  0
  155.2550   45.9596  145.6669 N   0  0  0  0  0  0  0  0  0  0  0  0
  155.8636   46.4502  144.5690 C   0  0  0  0  0  0  0  0  0  0  0  0
  155.1077   46.2762  143.4493 N   0  0  0  0  0  0  0  0  0  0  0  0
  153.9812   45.6505  143.8259 C   0  0  0  0  0  0  0  0  0  0  0  0
  152.7456   45.1732  143.1543 C   0  0  0  0  0  0  0  0  0  0  0  0
  152.5642   45.2924  141.9235 O   0  0  0  0  0  0  0  0  0  0  0  0
  151.8236   44.5780  143.9127 N   0  0  0  0  0  0  0  0  0  0  0  0
  151.9738   44.4203  145.2369 C   0  0  0  0  0  0  0  0  0  0  0  0
  150.9771   43.8201  145.9044 N   0  0  0  0  0  0  0  0  0  0  0  0
  153.0651   44.8354  145.9218 N   0  0  0  0  0  0  0  0  0  0  0  0
  154.0852   45.4479  145.2849 C   0  0  0  0  0  0  0  0  0  0  0  0
  1  3  2  6  0  0  0
  1 32  1  0  0  0  0
  1  2  1  0  0  0  0
  1  4  1  0  0  0  0
  4  5  1  0  0  0  0
  6  5  1  1  0  0  0
  7  6  1  0  0  0  0
  8  6  1  0  0  0  0
  8 10  1  0  0  0  0
  8  9  1  6  0  0  0
 10 11  1  6  0  0  0
 12 13  1  1  0  0  0
 12  7  1  0  0  0  0
 12 10  1  0  0  0  0
 14 13  1  0  0  0  0
 15 16  1  0  0  0  0
 15 14  2  0  0  0  0
 16 23  2  0  0  0  0
 17 16  1  0  0  0  0
 17 19  1  0  0  0  0
 18 17  2  0  0  0  0
 19 20  2  0  0  0  0
 20 22  1  0  0  0  0
 20 21  1  0  0  0  0
 23 13  1  0  0  0  0
 23 22  1  0  0  0  0
 24 25  2  6  0  0  0
 24  9  1  0  0  0  0
 24 26  1  0  0  0  0
 27 28  1  0  0  0  0
 27 24  1  0  0  0  0
 29 30  1  6  0  0  0
 29 28  1  0  0  0  0
 31 32  1  1  0  0  0
 31 29  1  0  0  0  0
 33 34  1  1  0  0  0
 33 35  1  0  0  0  0
 33 31  1  0  0  0  0
 35 36  1  6  0  0  0
 35 30  1  0  0  0  0
 36 37  1  0  0  0  0
 38 37  2  0  0  0  0
 39 38  1  0  0  0  0
 40 41  2  0  0  0  0
 40 39  1  0  0  0  0
 42 40  1  0  0  0  0
 43 42  2  0  0  0  0
 43 45  1  0  0  0  0
 44 43  1  0  0  0  0
 45 46  1  0  0  0  0
 46 39  2  0  0  0  0
 46 36  1  0  0  0  0
M  END
>  <CHROM.1>
-0.36232961,9.81511224,157.56764376,43.58435688,144.21270997,-2.12191243
0.18078717,-2.12079183

>  <Name>
lig.pdb

>  <RI>
0

>  <Rbt.Current_Directory>
/home/itssahil/PROJECTS/Mol_Feturizer/New_Systems/rnas/4yb0

>  <Rbt.Executable>
rbdock ($Id: //depot/dev/client3/rdock/2013.1/src/exe/rbdock.cxx#4 $)

>  <Rbt.Library>
libRbt.so (2013.1, Build901 2013/11/27)

>  <Rbt.Parameter_File>
/export/apps/rDock/src/rDock_2013.1_src/data/scripts/dock_solv.prm

>  <Rbt.Receptor>
prm/pocket_docking_3.prm

>  <SCORE>
-50.5556

>  <SCORE.INTER>
-50.5795

>  <SCORE.INTER.CONST>
1

>  <SCORE.INTER.POLAR>
0

>  <SCORE.INTER.ROT>
2

>  <SCORE.INTER.SOLV>
29.0529

>  <SCORE.INTER.VDW>
-48.3373

>  <SCORE.INTER.norm>
-1.09956

>  <SCORE.INTRA>
0.0239739

>  <SCORE.INTRA.DIHEDRAL>
0.0866422

>  <SCORE.INTRA.DIHEDRAL.0>
4.74153

>  <SCORE.INTRA.POLAR>
0

>  <SCORE.INTRA.POLAR.0>
0

>  <SCORE.INTRA.REPUL>
0

>  <SCORE.INTRA.REPUL.0>
0

>  <SCORE.INTRA.SOLV>
0.109408

>  <SCORE.INTRA.SOLV.lig_0>
-60.4375

>  <SCORE.INTRA.VDW>
-0.0740513

>  <SCORE.INTRA.VDW.0>
-1.83689

>  <SCORE.INTRA.norm>
0.000521172

>  <SCORE.RESTR>
0

>  <SCORE.RESTR.CAVITY>
0

>  <SCORE.RESTR.norm>
0

>  <SCORE.SYSTEM>
0

>  <SCORE.SYSTEM.CONST>
0

>  <SCORE.SYSTEM.DIHEDRAL>
0

>  <SCORE.SYSTEM.SOLV>
0

>  <SCORE.SYSTEM.norm>
0

>  <SCORE.heavy>
46

>  <SCORE.norm>
-1.09903

>  <RMSD>
0.475

$$$$
lig.pdb
 OpenBabel11021811523D
libRbt.so/2013.1/901 2013/11/27
 46 52  0  0  0  0  0  0  0  0999 V2000
  158.6145   42.1187  147.5164 P   0  0  2  0  0  0  0  0  0  0  0  0
  159.5235   41.4065  148.4942 O   0  0  0  0  0  0  0  0  0  0  0  0
  157.2184   41.5713  147.3671 O   0  0  0  0  0  0  0  0  0  0  0  0
  159.2811   42.2062  146.0559 O   0  0  0  0  0  0  0  0  0  0  0  0
  160.6382   41.8449  145.8343 C   0  0  0  0  0  0  0  0  0  0  0  0
  161.1080   42.3860  144.4941 C   0  0  1  0  0  0  0  0  0  0  0  0
  161.1298   41.3087  143.5684 O   0  0  0  0  0  0  0  0  0  0  0  0
  160.2285   43.4636  143.8729 C   0  0  1  0  0  0  0  0  0  0  0  0
  160.8388   44.7347  144.0416 O   0  0  0  0  0  0  0  0  0  0  0  0
  160.2458   43.1262  142.3989 C   0  0  1  0  0  0  0  0  0  0  0  0
  161.3329   43.8030  141.7646 O   0  0  0  0  0  0  0  0  0  0  0  0
  160.5442   41.6570  142.3232 C   0  0  2  0  0  0  0  0  0  0  0  0
  159.2735   40.9094  142.1714 N   0  0  0  0  0  0  0  0  0  0  0  0
  158.7600   40.0472  143.0661 C   0  0  0  0  0  0  0  0  0  0  0  0
  157.5952   39.5254  142.6121 N   0  0  0  0  0  0  0  0  0  0  0  0
  157.3452   40.0555  141.4015 C   0  0  0  0  0  0  0  0  0  0  0  0
  156.2813   39.9336  140.3772 C   0  0  0  0  0  0  0  0  0  0  0  0
  155.3081   39.1644  140.5644 O   0  0  0  0  0  0  0  0  0  0  0  0
  156.4013   40.6666  139.2570 N   0  0  0  0  0  0  0  0  0  0  0  0
  157.4487   41.4895  139.0602 C   0  0  0  0  0  0  0  0  0  0  0  0
  157.5147   42.2065  137.9161 N   0  0  0  0  0  0  0  0  0  0  0  0
  158.4526   41.6475  139.9524 N   0  0  0  0  0  0  0  0  0  0  0  0
  158.4568   40.9691  141.1197 C   0  0  0  0  0  0  0  0  0  0  0  0
  160.0729   46.1371  143.7539 P   0  0  2  0  0  0  0  0  0  0  0  0
  159.4086   46.0703  142.4002 O   0  0  0  0  0  0  0  0  0  0  0  0
  161.0688   47.2340  144.0806 O   0  0  0  0  0  0  0  0  0  0  0  0
  158.9033   46.1276  144.8680 O   0  0  0  0  0  0  0  0  0  0  0  0
  159.1947   46.4986  146.2148 C   0  0  0  0  0  0  0  0  0  0  0  0
  158.1447   46.0073  147.2162 C   0  0  1  0  0  0  0  0  0  0  0  0
  156.9574   46.7909  147.0787 O   0  0  0  0  0  0  0  0  0  0  0  0
  157.7310   44.5461  147.0552 C   0  0  1  0  0  0  0  0  0  0  0  0
  158.4741   43.6763  147.9081 O   0  0  0  0  0  0  0  0  0  0  0  0
  156.2632   44.5823  147.4379 C   0  0  1  0  0  0  0  0  0  0  0  0
  156.1023   44.4357  148.8516 O   0  0  0  0  0  0  0  0  0  0  0  0
  155.7857   45.9711  147.0680 C   0  0  2  0  0  0  0  0  0  0  0  0
  155.2277   45.9538  145.6930 N   0  0  0  0  0  0  0  0  0  0  0  0
  155.8277   46.4539  144.5947 C   0  0  0  0  0  0  0  0  0  0  0  0
  155.0702   46.2756  143.4769 N   0  0  0  0  0  0  0  0  0  0  0  0
  153.9514   45.6372  143.8550 C   0  0  0  0  0  0  0  0  0  0  0  0
  152.7186   45.1493  143.1858 C   0  0  0  0  0  0  0  0  0  0  0  0
  152.5322   45.2703  141.9559 O   0  0  0  0  0  0  0  0  0  0  0  0
  151.8052   44.5423  143.9452 N   0  0  0  0  0  0  0  0  0  0  0  0
  151.9611   44.3822  145.2684 C   0  0  0  0  0  0  0  0  0  0  0  0
  150.9727   43.7697  145.9372 N   0  0  0  0  0  0  0  0  0  0  0  0
  153.0502   44.8064  145.9512 N   0  0  0  0  0  0  0  0  0  0  0  0
  154.0620   45.4312  145.3131 C   0  0  0  0  0  0  0  0  0  0  0  0
  1  3  2  6  0  0  0
  1 32  1  0  0  0  0
  1  2  1  0  0  0  0
  1  4  1  0  0  0  0
  4  5  1  0  0  0  0
  6  5  1  1  0  0  0
  7  6  1  0  0  0  0
  8  6  1  0  0  0  0
  8 10  1  0  0  0  0
  8  9  1  6  0  0  0
 10 11  1  6  0  0  0
 12 13  1  1  0  0  0
 12  7  1  0  0  0  0
 12 10  1  0  0  0  0
 14 13  1  0  0  0  0
 15 16  1  0  0  0  0
 15 14  2  0  0  0  0
 16 23  2  0  0  0  0
 17 16  1  0  0  0  0
 17 19  1  0  0  0  0
 18 17  2  0  0  0  0
 19 20  2  0  0  0  0
 20 22  1  0  0  0  0
 20 21  1  0  0  0  0
 23 13  1  0  0  0  0
 23 22  1  0  0  0  0
 24 25  2  6  0  0  0
 24  9  1  0  0  0  0
 24 26  1  0  0  0  0
 27 28  1  0  0  0  0
 27 24  1  0  0  0  0
 29 30  1  6  0  0  0
 29 28  1  0  0  0  0
 31 32  1  1  0  0  0
 31 29  1  0  0  0  0
 33 34  1  1  0  0  0
 33 35  1  0  0  0  0
 33 31  1  0  0  0  0
 35 36  1  6  0  0  0
 35 30  1  0  0  0  0
 36 37  1  0  0  0  0
 38 37  2  0  0  0  0
 39 38  1  0  0  0  0
 40 41  2  0  0  0  0
 40 39  1  0  0  0  0
 42 40  1  0  0  0  0
 43 42  2  0  0  0  0
 43 45  1  0  0  0  0
 44 43  1  0  0  0  0
 45 46  1  0  0  0  0
 46 39  2  0  0  0  0
 46 36  1  0  0  0  0
M  END
>  <CHROM.1>
0.13654152,9.25365164,157.54147025,43.57563569,144.23168781,-2.10813730,0.17541165
-2.12285993

>  <Name>
lig.pdb

>  <RI>
0

>  <Rbt.Current_Directory>
/home/itssahil/PROJECTS/Mol_Feturizer/New_Systems/rnas/4yb0

>  <Rbt.Executable>
rbdock ($Id: //depot/dev/client3/rdock/2013.1/src/exe/rbdock.cxx#4 $)

>  <Rbt.Library>
libRbt.so (2013.1, Build901 2013/11/27)

>  <Rbt.Parameter_File>
/export/apps/rDock/src/rDock_2013.1_src/data/scripts/dock_solv.prm

>  <Rbt.Receptor>
prm/pocket_docking_4.prm

>  <SCORE>
-50.5371

>  <SCORE.INTER>
-50.5568

>  <SCORE.INTER.CONST>
1

>  <SCORE.INTER.POLAR>
0

>  <SCORE.INTER.ROT>
2

>  <SCORE.INTER.SOLV>
29.0732

>  <SCORE.INTER.VDW>
-48.3289

>  <SCORE.INTER.norm>
-1.09906

>  <SCORE.INTRA>
0.0197168

>  <SCORE.INTRA.DIHEDRAL>
0.0838735

>  <SCORE.INTRA.DIHEDRAL.0>
4.74153

>  <SCORE.INTRA.POLAR>
0

>  <SCORE.INTRA.POLAR.0>
0

>  <SCORE.INTRA.REPUL>
0

>  <SCORE.INTRA.REPUL.0>
0

>  <SCORE.INTRA.SOLV>
0.106776

>  <SCORE.INTRA.SOLV.lig_0>
-60.4375

>  <SCORE.INTRA.VDW>
-0.0756081

>  <SCORE.INTRA.VDW.0>
-1.83689

>  <SCORE.INTRA.norm>
0.000428625

>  <SCORE.RESTR>
0

>  <SCORE.RESTR.CAVITY>
0

>  <SCORE.RESTR.norm>
0

>  <SCORE.SYSTEM>
0

>  <SCORE.SYSTEM.CONST>
0

>  <SCORE.SYSTEM.DIHEDRAL>
0

>  <SCORE.SYSTEM.SOLV>
0

>  <SCORE.SYSTEM.norm>
0

>  <SCORE.heavy>
46

>  <SCORE.norm>
-1.09863

>  <RMSD>
0.475

$$$$
lig.pdb
 OpenBabel11021811523D
libRbt.so/2013.1/901 2013/11/27
 46 52  0  0  0  0  0  0  0  0999 V2000
  159.6591   46.2409  143.4161 P   0  0  2  0  0  0  0  0  0  0  0  0
  160.3000   47.5806  143.7063 O   0  0  0  0  0  0  0  0  0  0  0  0
  159.1727   46.0133  142.0080 O   0  0  0  0  0  0  0  0  0  0  0  0
  158.4425   45.9443  144.4245 O   0  0  0  0  0  0  0  0  0  0  0  0
  158.1975   46.7671  145.5577 C   0  0  0  0  0  0  0  0  0  0  0  0
  157.2701   46.0537  146.5275 C   0  0  1  0  0  0  0  0  0  0  0  0
  155.9729   46.6159  146.3893 O   0  0  0  0  0  0  0  0  0  0  0  0
  157.1105   44.5550  146.3058 C   0  0  1  0  0  0  0  0  0  0  0  0
  157.8651   43.8451  147.2770 O   0  0  0  0  0  0  0  0  0  0  0  0
  155.6435   44.3123  146.5816 C   0  0  1  0  0  0  0  0  0  0  0  0
  155.4585   44.0155  147.9672 O   0  0  0  0  0  0  0  0  0  0  0  0
  154.9603   45.6235  146.3223 C   0  0  2  0  0  0  0  0  0  0  0  0
  154.3947   45.6152  144.9524 N   0  0  0  0  0  0  0  0  0  0  0  0
  155.0103   46.0718  143.8479 C   0  0  0  0  0  0  0  0  0  0  0  0
  154.2112   45.9307  142.7632 N   0  0  0  0  0  0  0  0  0  0  0  0
  153.0555   45.3735  143.1668 C   0  0  0  0  0  0  0  0  0  0  0  0
  151.7870   44.9534  142.5263 C   0  0  0  0  0  0  0  0  0  0  0  0
  151.6194   45.1092  141.2927 O   0  0  0  0  0  0  0  0  0  0  0  0
  150.8384   44.4103  143.3083 N   0  0  0  0  0  0  0  0  0  0  0  0
  151.0227   44.2467  144.6321 C   0  0  0  0  0  0  0  0  0  0  0  0
  150.0354   43.6901  145.3688 N   0  0  0  0  0  0  0  0  0  0  0  0
  152.1539   44.6078  145.2791 N   0  0  0  0  0  0  0  0  0  0  0  0
  153.1864   45.1669  144.6125 C   0  0  0  0  0  0  0  0  0  0  0  0
  158.1552   42.2500  147.1900 P   0  0  2  0  0  0  0  0  0  0  0  0
  156.8582   41.5241  146.9272 O   0  0  0  0  0  0  0  0  0  0  0  0
  159.0072   41.9117  148.3988 O   0  0  0  0  0  0  0  0  0  0  0  0
  159.0541   42.1343  145.8529 O   0  0  0  0  0  0  0  0  0  0  0  0
  160.4469   42.4417  145.8980 C   0  0  0  0  0  0  0  0  0  0  0  0
  161.0448   42.7342  144.5183 C   0  0  1  0  0  0  0  0  0  0  0  0
  161.1656   41.5122  143.7869 O   0  0  0  0  0  0  0  0  0  0  0  0
  160.2304   43.6905  143.6497 C   0  0  1  0  0  0  0  0  0  0  0  0
  160.6770   45.0407  143.7663 O   0  0  0  0  0  0  0  0  0  0  0  0
  160.4692   43.1425  142.2552 C   0  0  1  0  0  0  0  0  0  0  0  0
  161.6595   43.6965  141.6877 O   0  0  0  0  0  0  0  0  0  0  0  0
  160.7032   41.6579  142.4415 C   0  0  2  0  0  0  0  0  0  0  0  0
  159.4173   40.9312  142.2974 N   0  0  0  0  0  0  0  0  0  0  0  0
  158.8963   40.0699  143.1936 C   0  0  0  0  0  0  0  0  0  0  0  0
  157.6964   39.5736  142.7823 N   0  0  0  0  0  0  0  0  0  0  0  0
  157.4254   40.1306  141.5912 C   0  0  0  0  0  0  0  0  0  0  0  0
  156.3309   40.0411  140.5914 C   0  0  0  0  0  0  0  0  0  0  0  0
  155.3234   39.3219  140.7646 O   0  0  0  0  0  0  0  0  0  0  0  0
  156.4418   40.7845  139.4893 N   0  0  0  0  0  0  0  0  0  0  0  0
  157.5001   41.5770  139.2596 C   0  0  0  0  0  0  0  0  0  0  0  0
  157.5150   42.2702  138.1113 N   0  0  0  0  0  0  0  0  0  0  0  0
  158.5398   41.7055  140.1167 N   0  0  0  0  0  0  0  0  0  0  0  0
  158.5622   41.0199  141.2789 C   0  0  0  0  0  0  0  0  0  0  0  0
  1  3  2  6  0  0  0
  1 32  1  0  0  0  0
  1  2  1  0  0  0  0
  1  4  1  0  0  0  0
  4  5  1  0  0  0  0
  6  5  1  6  0  0  0
  7  6  1  0  0  0  0
  8  6  1  0  0  0  0
  8 10  1  0  0  0  0
  8  9  1  1  0  0  0
 10 11  1  1  0  0  0
 12 13  1  6  0  0  0
 12  7  1  0  0  0  0
 12 10  1  0  0  0  0
 14 13  1  0  0  0  0
 15 16  1  0  0  0  0
 15 14  2  0  0  0  0
 16 23  2  0  0  0  0
 17 16  1  0  0  0  0
 17 19  1  0  0  0  0
 18 17  2  0  0  0  0
 19 20  2  0  0  0  0
 20 22  1  0  0  0  0
 20 21  1  0  0  0  0
 23 13  1  0  0  0  0
 23 22  1  0  0  0  0
 24 25  2  6  0  0  0
 24  9  1  0  0  0  0
 24 26  1  0  0  0  0
 27 28  1  0  0  0  0
 27 24  1  0  0  0  0
 29 30  1  6  0  0  0
 29 28  1  0  0  0  0
 31 32  1  6  0  0  0
 31 29  1  0  0  0  0
 33 34  1  1  0  0  0
 33 35  1  0  0  0  0
 33 31  1  0  0  0  0
 35 36  1  1  0  0  0
 35 30  1  0  0  0  0
 36 37  1  0  0  0  0
 38 37  2  0  0  0  0
 39 38  1  0  0  0  0
 40 41  2  0  0  0  0
 40 39  1  0  0  0  0
 42 40  1  0  0  0  0
 43 42  2  0  0  0  0
 43 45  1  0  0  0  0
 44 43  1  0  0  0  0
 45 46  1  0  0  0  0
 46 39  2  0  0  0  0
 46 36  1  0  0  0  0
M  END
>  <CHROM.1>
22.43859305,-11.62230194,157.14060985,43.58317253,143.91894990,-0.35565988
-0.16349703,1.01011360

>  <Name>
lig.pdb

>  <RI>
0

>  <Rbt.Current_Directory>
/home/itssahil/PROJECTS/Mol_Feturizer/New_Systems/rnas/4yb0

>  <Rbt.Executable>
rbdock ($Id: //depot/dev/client3/rdock/2013.1/src/exe/rbdock.cxx#4 $)

>  <Rbt.Library>
libRbt.so (2013.1, Build901 2013/11/27)

>  <Rbt.Parameter_File>
/export/apps/rDock/src/rDock_2013.1_src/data/scripts/dock_solv.prm

>  <Rbt.Receptor>
prm/pocket_docking_2.prm

>  <SCORE>
-53.6518

>  <SCORE.INTER>
-53.5408

>  <SCORE.INTER.CONST>
1

>  <SCORE.INTER.POLAR>
0

>  <SCORE.INTER.ROT>
2

>  <SCORE.INTER.SOLV>
31.2126

>  <SCORE.INTER.VDW>
-51.0314

>  <SCORE.INTER.norm>
-1.16393

>  <SCORE.INTRA>
-0.11098

>  <SCORE.INTRA.DIHEDRAL>
-0.019737

>  <SCORE.INTRA.DIHEDRAL.0>
4.74153

>  <SCORE.INTRA.POLAR>
0

>  <SCORE.INTRA.POLAR.0>
0

>  <SCORE.INTRA.REPUL>
0

>  <SCORE.INTRA.REPUL.0>
0

>  <SCORE.INTRA.SOLV>
0.00183805

>  <SCORE.INTRA.SOLV.lig_0>
-60.4375

>  <SCORE.INTRA.VDW>
-0.102031

>  <SCORE.INTRA.VDW.0>
-1.83689

>  <SCORE.INTRA.norm>
-0.00241262

>  <SCORE.RESTR>
0

>  <SCORE.RESTR.CAVITY>
0

>  <SCORE.RESTR.norm>
0

>  <SCORE.SYSTEM>
0

>  <SCORE.SYSTEM.CONST>
0

>  <SCORE.SYSTEM.DIHEDRAL>
0

>  <SCORE.SYSTEM.SOLV>
0

>  <SCORE.SYSTEM.norm>
0

>  <SCORE.heavy>
46

>  <SCORE.norm>
-1.16634

>  <RMSD>
0.476

$$$$
lig.pdb
 OpenBabel11021811523D
libRbt.so/2013.1/901 2013/11/27
 46 52  0  0  0  0  0  0  0  0999 V2000
  159.6591   46.2476  143.4063 P   0  0  2  0  0  0  0  0  0  0  0  0
  160.3033   47.5870  143.6900 O   0  0  0  0  0  0  0  0  0  0  0  0
  159.1708   46.0150  141.9997 O   0  0  0  0  0  0  0  0  0  0  0  0
  158.4428   45.9581  144.4171 O   0  0  0  0  0  0  0  0  0  0  0  0
  158.2009   46.7863  145.5470 C   0  0  0  0  0  0  0  0  0  0  0  0
  157.2728   46.0791  146.5208 C   0  0  1  0  0  0  0  0  0  0  0  0
  155.9767   46.6437  146.3815 O   0  0  0  0  0  0  0  0  0  0  0  0
  157.1096   44.5798  146.3057 C   0  0  1  0  0  0  0  0  0  0  0  0
  157.8636   43.8725  147.2792 O   0  0  0  0  0  0  0  0  0  0  0  0
  155.6424   44.3416  146.5840 C   0  0  1  0  0  0  0  0  0  0  0  0
  155.4581   44.0513  147.9710 O   0  0  0  0  0  0  0  0  0  0  0  0
  154.9619   45.6533  146.3198 C   0  0  2  0  0  0  0  0  0  0  0  0
  154.3949   45.6404  144.9504 N   0  0  0  0  0  0  0  0  0  0  0  0
  154.9993   46.1160  143.8477 C   0  0  0  0  0  0  0  0  0  0  0  0
  154.2019   45.9638  142.7632 N   0  0  0  0  0  0  0  0  0  0  0  0
  153.0589   45.3799  143.1651 C   0  0  0  0  0  0  0  0  0  0  0  0
  151.7988   44.9364  142.5237 C   0  0  0  0  0  0  0  0  0  0  0  0
  151.6264   45.0953  141.2912 O   0  0  0  0  0  0  0  0  0  0  0  0
  150.8630   44.3689  143.3038 N   0  0  0  0  0  0  0  0  0  0  0  0
  151.0523   44.2021  144.6264 C   0  0  0  0  0  0  0  0  0  0  0  0
  150.0781   43.6206  145.3613 N   0  0  0  0  0  0  0  0  0  0  0  0
  152.1764   44.5837  145.2742 N   0  0  0  0  0  0  0  0  0  0  0  0
  153.1960   45.1683  144.6095 C   0  0  0  0  0  0  0  0  0  0  0  0
  158.1500   42.2764  147.1987 P   0  0  2  0  0  0  0  0  0  0  0  0
  156.8511   41.5522  146.9404 O   0  0  0  0  0  0  0  0  0  0  0  0
  159.0025   41.9413  148.4082 O   0  0  0  0  0  0  0  0  0  0  0  0
  159.0473   42.1528  145.8613 O   0  0  0  0  0  0  0  0  0  0  0  0
  160.4408   42.4573  145.9037 C   0  0  0  0  0  0  0  0  0  0  0  0
  161.0380   42.7425  144.5221 C   0  0  1  0  0  0  0  0  0  0  0  0
  161.1554   41.5172  143.7958 O   0  0  0  0  0  0  0  0  0  0  0  0
  160.2249   43.6969  143.6503 C   0  0  1  0  0  0  0  0  0  0  0  0
  160.6747   45.0466  143.7606 O   0  0  0  0  0  0  0  0  0  0  0  0
  160.4610   43.1424  142.2579 C   0  0  1  0  0  0  0  0  0  0  0  0
  161.6520   43.6913  141.6868 O   0  0  0  0  0  0  0  0  0  0  0  0
  160.6919   41.6580  142.4503 C   0  0  2  0  0  0  0  0  0  0  0  0
  159.4043   40.9337  142.3106 N   0  0  0  0  0  0  0  0  0  0  0  0
  158.8717   40.0942  143.2207 C   0  0  0  0  0  0  0  0  0  0  0  0
  157.6734   39.5940  142.8096 N   0  0  0  0  0  0  0  0  0  0  0  0
  157.4152   40.1261  141.6044 C   0  0  0  0  0  0  0  0  0  0  0  0
  156.3291   40.0193  140.5971 C   0  0  0  0  0  0  0  0  0  0  0  0
  155.3171   39.3082  140.7769 O   0  0  0  0  0  0  0  0  0  0  0  0
  156.4528   40.7382  139.4801 N   0  0  0  0  0  0  0  0  0  0  0  0
  157.5165   41.5212  139.2427 C   0  0  0  0  0  0  0  0  0  0  0  0
  157.5444   42.1893  138.0798 N   0  0  0  0  0  0  0  0  0  0  0  0
  158.5492   41.6640  140.1060 N   0  0  0  0  0  0  0  0  0  0  0  0
  158.5585   41.0037  141.2830 C   0  0  0  0  0  0  0  0  0  0  0  0
  1  3  2  6  0  0  0
  1 32  1  0  0  0  0
  1  2  1  0  0  0  0
  1  4  1  0  0  0  0
  4  5  1  0  0  0  0
  6  5  1  6  0  0  0
  7  6  1  0  0  0  0
  8  6  1  0  0  0  0
  8 10  1  0  0  0  0
  8  9  1  1  0  0  0
 10 11  1  1  0  0  0
 12 13  1  6  0  0  0
 12  7  1  0  0  0  0
 12 10  1  0  0  0  0
 14 13  1  0  0  0  0
 15 16  1  0  0  0  0
 15 14  2  0  0  0  0
 16 23  2  0  0  0  0
 17 16  1  0  0  0  0
 17 19  1  0  0  0  0
 18 17  2  0  0  0  0
 19 20  2  0  0  0  0
 20 22  1  0  0  0  0
 20 21  1  0  0  0  0
 23 13  1  0  0  0  0
 23 22  1  0  0  0  0
 24 25  2  6  0  0  0
 24  9  1  0  0  0  0
 24 26  1  0  0  0  0
 27 28  1  0  0  0  0
 27 24  1  0  0  0  0
 29 30  1  6  0  0  0
 29 28  1  0  0  0  0
 31 32  1  6  0  0  0
 31 29  1  0  0  0  0
 33 34  1  1  0  0  0
 33 35  1  0  0  0  0
 33 31  1  0  0  0  0
 35 36  1  1  0  0  0
 35 30  1  0  0  0  0
 36 37  1  0  0  0  0
 38 37  2  0  0  0  0
 39 38  1  0  0  0  0
 40 41  2  0  0  0  0
 40 39  1  0  0  0  0
 42 40  1  0  0  0  0
 43 42  2  0  0  0  0
 43 45  1  0  0  0  0
 44 43  1  0  0  0  0
 45 46  1  0  0  0  0
 46 39  2  0  0  0  0
 46 36  1  0  0  0  0
M  END
>  <CHROM.1>
20.97844414,-10.47318350,157.14118331,43.58574584,143.91899417,-0.36477178
-0.15871122,1.00156127

>  <Name>
lig.pdb

>  <RI>
0

>  <Rbt.Current_Directory>
/home/itssahil/PROJECTS/Mol_Feturizer/New_Systems/rnas/4yb0

>  <Rbt.Executable>
rbdock ($Id: //depot/dev/client3/rdock/2013.1/src/exe/rbdock.cxx#4 $)

>  <Rbt.Library>
libRbt.so (2013.1, Build901 2013/11/27)

>  <Rbt.Parameter_File>
/export/apps/rDock/src/rDock_2013.1_src/data/scripts/dock_solv.prm

>  <Rbt.Receptor>
prm/pocket_docking_2.prm

>  <SCORE>
-53.5244

>  <SCORE.INTER>
-53.4203

>  <SCORE.INTER.CONST>
1

>  <SCORE.INTER.POLAR>
0

>  <SCORE.INTER.ROT>
2

>  <SCORE.INTER.SOLV>
31.0426

>  <SCORE.INTER.VDW>
-50.8944

>  <SCORE.INTER.norm>
-1.16131

>  <SCORE.INTRA>
-0.10405

>  <SCORE.INTRA.DIHEDRAL>
-0.0153508

>  <SCORE.INTRA.DIHEDRAL.0>
4.74153

>  <SCORE.INTRA.POLAR>
0

>  <SCORE.INTRA.POLAR.0>
0

>  <SCORE.INTRA.REPUL>
0

>  <SCORE.INTRA.REPUL.0>
0

>  <SCORE.INTRA.SOLV>
0.00462518

>  <SCORE.INTRA.SOLV.lig_0>
-60.4375

>  <SCORE.INTRA.VDW>
-0.0986876

>  <SCORE.INTRA.VDW.0>
-1.83689

>  <SCORE.INTRA.norm>
-0.00226197

>  <SCORE.RESTR>
0

>  <SCORE.RESTR.CAVITY>
0

>  <SCORE.RESTR.norm>
0

>  <SCORE.SYSTEM>
0

>  <SCORE.SYSTEM.CONST>
0

>  <SCORE.SYSTEM.DIHEDRAL>
0

>  <SCORE.SYSTEM.SOLV>
0

>  <SCORE.SYSTEM.norm>
0

>  <SCORE.heavy>
46

>  <SCORE.norm>
-1.16357

>  <RMSD>
0.476

$$$$
lig.pdb
 OpenBabel11021811523D
libRbt.so/2013.1/901 2013/11/27
 46 52  0  0  0  0  0  0  0  0999 V2000
  159.6559   46.2767  143.4502 P   0  0  2  0  0  0  0  0  0  0  0  0
  160.3017   47.6101  143.7578 O   0  0  0  0  0  0  0  0  0  0  0  0
  159.1737   46.0672  142.0379 O   0  0  0  0  0  0  0  0  0  0  0  0
  158.4342   45.9742  144.4507 O   0  0  0  0  0  0  0  0  0  0  0  0
  158.1888   46.7853  145.5922 C   0  0  0  0  0  0  0  0  0  0  0  0
  157.2546   46.0651  146.5505 C   0  0  1  0  0  0  0  0  0  0  0  0
  155.9604   46.6348  146.4140 O   0  0  0  0  0  0  0  0  0  0  0  0
  157.0891   44.5697  146.3113 C   0  0  1  0  0  0  0  0  0  0  0  0
  157.8370   43.8456  147.2772 O   0  0  0  0  0  0  0  0  0  0  0  0
  155.6201   44.3306  146.5790 C   0  0  1  0  0  0  0  0  0  0  0  0
  155.4286   44.0190  147.9604 O   0  0  0  0  0  0  0  0  0  0  0  0
  154.9437   45.6477  146.3321 C   0  0  2  0  0  0  0  0  0  0  0  0
  154.3831   45.6574  144.9600 N   0  0  0  0  0  0  0  0  0  0  0  0
  155.0071   46.1184  143.8621 C   0  0  0  0  0  0  0  0  0  0  0  0
  154.2107   45.9949  142.7732 N   0  0  0  0  0  0  0  0  0  0  0  0
  153.0484   45.4450  143.1675 C   0  0  0  0  0  0  0  0  0  0  0  0
  151.7784   45.0428  142.5184 C   0  0  0  0  0  0  0  0  0  0  0  0
  151.6168   45.2116  141.2858 O   0  0  0  0  0  0  0  0  0  0  0  0
  150.8218   44.5014  143.2920 N   0  0  0  0  0  0  0  0  0  0  0  0
  150.9996   44.3238  144.6148 C   0  0  0  0  0  0  0  0  0  0  0  0
  150.0044   43.7697  145.3427 N   0  0  0  0  0  0  0  0  0  0  0  0
  152.1318   44.6682  145.2693 N   0  0  0  0  0  0  0  0  0  0  0  0
  153.1719   45.2237  144.6116 C   0  0  0  0  0  0  0  0  0  0  0  0
  158.1202   42.2503  147.1731 P   0  0  2  0  0  0  0  0  0  0  0  0
  156.8210   41.5332  146.8975 O   0  0  0  0  0  0  0  0  0  0  0  0
  158.9663   41.8945  148.3812 O   0  0  0  0  0  0  0  0  0  0  0  0
  159.0236   42.1456  145.8381 O   0  0  0  0  0  0  0  0  0  0  0  0
  160.4175   42.4462  145.8918 C   0  0  0  0  0  0  0  0  0  0  0  0
  161.0218   42.7516  144.5177 C   0  0  1  0  0  0  0  0  0  0  0  0
  161.1399   41.5374  143.7729 O   0  0  0  0  0  0  0  0  0  0  0  0
  160.2150   43.7212  143.6570 C   0  0  1  0  0  0  0  0  0  0  0  0
  160.6672   45.0680  143.7905 O   0  0  0  0  0  0  0  0  0  0  0  0
  160.4564   43.1879  142.2573 C   0  0  1  0  0  0  0  0  0  0  0  0
  161.6513   43.7430  141.7004 O   0  0  0  0  0  0  0  0  0  0  0  0
  160.6831   41.7003  142.4276 C   0  0  2  0  0  0  0  0  0  0  0  0
  159.3946   40.9811  142.2706 N   0  0  0  0  0  0  0  0  0  0  0  0
  158.8840   40.0843  143.1376 C   0  0  0  0  0  0  0  0  0  0  0  0
  157.6783   39.6062  142.7219 N   0  0  0  0  0  0  0  0  0  0  0  0
  157.3927   40.2116  141.5582 C   0  0  0  0  0  0  0  0  0  0  0  0
  156.2852   40.1638  140.5698 C   0  0  0  0  0  0  0  0  0  0  0  0
  155.2791   39.4390  140.7265 O   0  0  0  0  0  0  0  0  0  0  0  0
  156.3829   40.9515  139.4976 N   0  0  0  0  0  0  0  0  0  0  0  0
  157.4391   41.7519  139.2868 C   0  0  0  0  0  0  0  0  0  0  0  0
  157.4401   42.4915  138.1677 N   0  0  0  0  0  0  0  0  0  0  0  0
  158.4900   41.8445  140.1349 N   0  0  0  0  0  0  0  0  0  0  0  0
  158.5265   41.1120  141.2678 C   0  0  0  0  0  0  0  0  0  0  0  0
  1  3  2  6  0  0  0
  1 32  1  0  0  0  0
  1  2  1  0  0  0  0
  1  4  1  0  0  0  0
  4  5  1  0  0  0  0
  6  5  1  6  0  0  0
  7  6  1  0  0  0  0
  8  6  1  0  0  0  0
  8 10  1  0  0  0  0
  8  9  1  1  0  0  0
 10 11  1  1  0  0  0
 12 13  1  6  0  0  0
 12  7  1  0  0  0  0
 12 10  1  0  0  0  0
 14 13  1  0  0  0  0
 15 16  1  0  0  0  0
 15 14  2  0  0  0  0
 16 23  2  0  0  0  0
 17 16  1  0  0  0  0
 17 19  1  0  0  0  0
 18 17  2  0  0  0  0
 19 20  2  0  0  0  0
 20 22  1  0  0  0  0
 20 21  1  0  0  0  0
 23 13  1  0  0  0  0
 23 22  1  0  0  0  0
 24 25  2  6  0  0  0
 24  9  1  0  0  0  0
 24 26  1  0  0  0  0
 27 28  1  0  0  0  0
 27 24  1  0  0  0  0
 29 30  1  6  0  0  0
 29 28  1  0  0  0  0
 31 32  1  6  0  0  0
 31 29  1  0  0  0  0
 33 34  1  1  0  0  0
 33 35  1  0  0  0  0
 33 31  1  0  0  0  0
 35 36  1  1  0  0  0
 35 30  1  0  0  0  0
 36 37  1  0  0  0  0
 38 37  2  0  0  0  0
 39 38  1  0  0  0  0
 40 41  2  0  0  0  0
 40 39  1  0  0  0  0
 42 40  1  0  0  0  0
 43 42  2  0  0  0  0
 43 45  1  0  0  0  0
 44 43  1  0  0  0  0
 45 46  1  0  0  0  0
 46 39  2  0  0  0  0
 46 36  1  0  0  0  0
M  END
>  <CHROM.1>
22.74314557,-13.57449361,157.11814144,43.63415083,143.91915264,-0.33859477
-0.17176300,1.02532418

>  <Name>
lig.pdb

>  <RI>
0

>  <Rbt.Current_Directory>
/home/itssahil/PROJECTS/Mol_Feturizer/New_Systems/rnas/4yb0

>  <Rbt.Executable>
rbdock ($Id: //depot/dev/client3/rdock/2013.1/src/exe/rbdock.cxx#4 $)

>  <Rbt.Library>
libRbt.so (2013.1, Build901 2013/11/27)

>  <Rbt.Parameter_File>
/export/apps/rDock/src/rDock_2013.1_src/data/scripts/dock_solv.prm

>  <Rbt.Receptor>
prm/pocket_docking_3.prm

>  <SCORE>
-53.5998

>  <SCORE.INTER>
-53.4963

>  <SCORE.INTER.CONST>
1

>  <SCORE.INTER.POLAR>
0

>  <SCORE.INTER.ROT>
2

>  <SCORE.INTER.SOLV>
31.3861

>  <SCORE.INTER.VDW>
-51.0596

>  <SCORE.INTER.norm>
-1.16296

>  <SCORE.INTRA>
-0.103509

>  <SCORE.INTRA.DIHEDRAL>
-0.0247548

>  <SCORE.INTRA.DIHEDRAL.0>
4.74153

>  <SCORE.INTRA.POLAR>
0

>  <SCORE.INTRA.POLAR.0>
0

>  <SCORE.INTRA.REPUL>
0

>  <SCORE.INTRA.REPUL.0>
0

>  <SCORE.INTRA.SOLV>
-0.0032459

>  <SCORE.INTRA.SOLV.lig_0>
-60.4375

>  <SCORE.INTRA.VDW>
-0.0895085

>  <SCORE.INTRA.VDW.0>
-1.83689

>  <SCORE.INTRA.norm>
-0.00225019

>  <SCORE.RESTR>
0

>  <SCORE.RESTR.CAVITY>
0

>  <SCORE.RESTR.norm>
0

>  <SCORE.SYSTEM>
0

>  <SCORE.SYSTEM.CONST>
0

>  <SCORE.SYSTEM.DIHEDRAL>
0

>  <SCORE.SYSTEM.SOLV>
0

>  <SCORE.SYSTEM.norm>
0

>  <SCORE.heavy>
46

>  <SCORE.norm>
-1.16521

>  <RMSD>
0.476

$$$$
lig.pdb
 OpenBabel11021811523D
libRbt.so/2013.1/901 2013/11/27
 46 52  0  0  0  0  0  0  0  0999 V2000
  159.6399   46.2974  143.4845 P   0  0  2  0  0  0  0  0  0  0  0  0
  160.2660   47.6412  143.7876 O   0  0  0  0  0  0  0  0  0  0  0  0
  159.1700   46.0724  142.0705 O   0  0  0  0  0  0  0  0  0  0  0  0
  158.4156   45.9855  144.4789 O   0  0  0  0  0  0  0  0  0  0  0  0
  158.1519   46.8007  145.6134 C   0  0  0  0  0  0  0  0  0  0  0  0
  157.2208   46.0746  146.5702 C   0  0  1  0  0  0  0  0  0  0  0  0
  155.9202   46.6262  146.4213 O   0  0  0  0  0  0  0  0  0  0  0  0
  157.0765   44.5756  146.3399 C   0  0  1  0  0  0  0  0  0  0  0  0
  157.8273   43.8677  147.3154 O   0  0  0  0  0  0  0  0  0  0  0  0
  155.6090   44.3189  146.5994 C   0  0  1  0  0  0  0  0  0  0  0  0
  155.4123   44.0139  147.9815 O   0  0  0  0  0  0  0  0  0  0  0  0
  154.9171   45.6254  146.3392 C   0  0  2  0  0  0  0  0  0  0  0  0
  154.3657   45.6188  144.9635 N   0  0  0  0  0  0  0  0  0  0  0  0
  154.9915   46.0795  143.8664 C   0  0  0  0  0  0  0  0  0  0  0  0
  154.2039   45.9388  142.7732 N   0  0  0  0  0  0  0  0  0  0  0  0
  153.0457   45.3777  143.1636 C   0  0  0  0  0  0  0  0  0  0  0  0
  151.7849   44.9557  142.5090 C   0  0  0  0  0  0  0  0  0  0  0  0
  151.6296   45.1139  141.2742 O   0  0  0  0  0  0  0  0  0  0  0  0
  150.8297   44.4083  143.2800 N   0  0  0  0  0  0  0  0  0  0  0  0
  151.0008   44.2421  144.6052 C   0  0  0  0  0  0  0  0  0  0  0  0
  150.0074   43.6812  145.3305 N   0  0  0  0  0  0  0  0  0  0  0  0
  152.1243   44.6047  145.2647 N   0  0  0  0  0  0  0  0  0  0  0  0
  153.1621   45.1680  144.6101 C   0  0  0  0  0  0  0  0  0  0  0  0
  158.1321   42.2756  147.2239 P   0  0  2  0  0  0  0  0  0  0  0  0
  156.8443   41.5397  146.9443 O   0  0  0  0  0  0  0  0  0  0  0  0
  158.9747   41.9389  148.4399 O   0  0  0  0  0  0  0  0  0  0  0  0
  159.0458   42.1741  145.8956 O   0  0  0  0  0  0  0  0  0  0  0  0
  160.4353   42.4933  145.9565 C   0  0  0  0  0  0  0  0  0  0  0  0
  161.0447   42.7976  144.5844 C   0  0  1  0  0  0  0  0  0  0  0  0
  161.1837   41.5803  143.8486 O   0  0  0  0  0  0  0  0  0  0  0  0
  160.2310   43.7510  143.7121 C   0  0  1  0  0  0  0  0  0  0  0  0
  160.6646   45.1044  143.8395 O   0  0  0  0  0  0  0  0  0  0  0  0
  160.4889   43.2117  142.3175 C   0  0  1  0  0  0  0  0  0  0  0  0
  161.6800   43.7788  141.7649 O   0  0  0  0  0  0  0  0  0  0  0  0
  160.7339   41.7283  142.4992 C   0  0  2  0  0  0  0  0  0  0  0  0
  159.4560   40.9912  142.3384 N   0  0  0  0  0  0  0  0  0  0  0  0
  158.9628   40.0764  143.1965 C   0  0  0  0  0  0  0  0  0  0  0  0
  157.7629   39.5847  142.7796 N   0  0  0  0  0  0  0  0  0  0  0  0
  157.4634   40.1994  141.6244 C   0  0  0  0  0  0  0  0  0  0  0  0
  156.3529   40.1464  140.6397 C   0  0  0  0  0  0  0  0  0  0  0  0
  155.3587   39.4042  140.7914 O   0  0  0  0  0  0  0  0  0  0  0  0
  156.4341   40.9483  139.5766 N   0  0  0  0  0  0  0  0  0  0  0  0
  157.4771   41.7674  139.3715 C   0  0  0  0  0  0  0  0  0  0  0  0
  157.4622   42.5202  138.2614 N   0  0  0  0  0  0  0  0  0  0  0  0
  158.5298   41.8661  140.2167 N   0  0  0  0  0  0  0  0  0  0  0  0
  158.5820   41.1207  141.3405 C   0  0  0  0  0  0  0  0  0  0  0  0
  1  3  2  6  0  0  0
  1 32  1  0  0  0  0
  1  2  1  0  0  0  0
  1  4  1  0  0  0  0
  4  5  1  0  0  0  0
  6  5  1  6  0  0  0
  7  6  1  0  0  0  0
  8  6  1  0  0  0  0
  8 10  1  0  0  0  0
  8  9  1  1  0  0  0
 10 11  1  1  0  0  0
 12 13  1  6  0  0  0
 12  7  1  0  0  0  0
 12 10  1  0  0  0  0
 14 13  1  0  0  0  0
 15 16  1  0  0  0  0
 15 14  2  0  0  0  0
 16 23  2  0  0  0  0
 17 16  1  0  0  0  0
 17 19  1  0  0  0  0
 18 17  2  0  0  0  0
 19 20  2  0  0  0  0
 20 22  1  0  0  0  0
 20 21  1  0  0  0  0
 23 13  1  0  0  0  0
 23 22  1  0  0  0  0
 24 25  2  6  0  0  0
 24  9  1  0  0  0  0
 24 26  1  0  0  0  0
 27 28  1  0  0  0  0
 27 24  1  0  0  0  0
 29 30  1  6  0  0  0
 29 28  1  0  0  0  0
 31 32  1  6  0  0  0
 31 29  1  0  0  0  0
 33 34  1  1  0  0  0
 33 35  1  0  0  0  0
 33 31  1  0  0  0  0
 35 36  1  1  0  0  0
 35 30  1  0  0  0  0
 36 37  1  0  0  0  0
 38 37  2  0  0  0  0
 39 38  1  0  0  0  0
 40 41  2  0  0  0  0
 40 39  1  0  0  0  0
 42 40  1  0  0  0  0
 43 42  2  0  0  0  0
 43 45  1  0  0  0  0
 44 43  1  0  0  0  0
 45 46  1  0  0  0  0
 46 39  2  0  0  0  0
 46 36  1  0  0  0  0
M  END
>  <CHROM.1>
22.81307841,-14.80617993,157.13057942,43.62999843,143.95759504,-0.31572083
-0.16509343,1.02284431

>  <Name>
lig.pdb

>  <RI>
0

>  <Rbt.Current_Directory>
/home/itssahil/PROJECTS/Mol_Feturizer/New_Systems/rnas/4yb0

>  <Rbt.Executable>
rbdock ($Id: //depot/dev/client3/rdock/2013.1/src/exe/rbdock.cxx#4 $)

>  <Rbt.Library>
libRbt.so (2013.1, Build901 2013/11/27)

>  <Rbt.Parameter_File>
/export/apps/rDock/src/rDock_2013.1_src/data/scripts/dock_solv.prm

>  <Rbt.Receptor>
prm/pocket_docking_4.prm

>  <SCORE>
-53.525

>  <SCORE.INTER>
-53.4279

>  <SCORE.INTER.CONST>
1

>  <SCORE.INTER.POLAR>
0

>  <SCORE.INTER.ROT>
2

>  <SCORE.INTER.SOLV>
30.7834

>  <SCORE.INTER.VDW>
-50.8131

>  <SCORE.INTER.norm>
-1.16148

>  <SCORE.INTRA>
-0.097098

>  <SCORE.INTRA.DIHEDRAL>
-0.0275996

>  <SCORE.INTRA.DIHEDRAL.0>
4.74153

>  <SCORE.INTRA.POLAR>
0

>  <SCORE.INTRA.POLAR.0>
0

>  <SCORE.INTRA.REPUL>
0

>  <SCORE.INTRA.REPUL.0>
0

>  <SCORE.INTRA.SOLV>
-0.0066225

>  <SCORE.INTRA.SOLV.lig_0>
-60.4375

>  <SCORE.INTRA.VDW>
-0.079987

>  <SCORE.INTRA.VDW.0>
-1.83689

>  <SCORE.INTRA.norm>
-0.00211083

>  <SCORE.RESTR>
0

>  <SCORE.RESTR.CAVITY>
0

>  <SCORE.RESTR.norm>
0

>  <SCORE.SYSTEM>
0

>  <SCORE.SYSTEM.CONST>
0

>  <SCORE.SYSTEM.DIHEDRAL>
0

>  <SCORE.SYSTEM.SOLV>
0

>  <SCORE.SYSTEM.norm>
0

>  <SCORE.heavy>
46

>  <SCORE.norm>
-1.16359

>  <RMSD>
0.476

$$$$
lig.pdb
 OpenBabel11021811523D
libRbt.so/2013.1/901 2013/11/27
 46 52  0  0  0  0  0  0  0  0999 V2000
  158.6122   42.1262  147.5256 P   0  0  2  0  0  0  0  0  0  0  0  0
  159.5121   41.4129  148.5110 O   0  0  0  0  0  0  0  0  0  0  0  0
  157.2145   41.5848  147.3695 O   0  0  0  0  0  0  0  0  0  0  0  0
  159.2881   42.2061  146.0689 O   0  0  0  0  0  0  0  0  0  0  0  0
  160.6447   41.8380  145.8566 C   0  0  0  0  0  0  0  0  0  0  0  0
  161.1251   42.3727  144.5176 C   0  0  1  0  0  0  0  0  0  0  0  0
  161.1475   41.2924  143.5954 O   0  0  0  0  0  0  0  0  0  0  0  0
  160.2543   43.4524  143.8878 C   0  0  1  0  0  0  0  0  0  0  0  0
  160.8694   44.7211  144.0562 O   0  0  0  0  0  0  0  0  0  0  0  0
  160.2790   43.1103  142.4149 C   0  0  1  0  0  0  0  0  0  0  0  0
  161.3730   43.7801  141.7851 O   0  0  0  0  0  0  0  0  0  0  0  0
  160.5711   41.6395  142.3456 C   0  0  2  0  0  0  0  0  0  0  0  0
  159.2978   40.8972  142.1884 N   0  0  0  0  0  0  0  0  0  0  0  0
  158.7828   40.0285  143.0758 C   0  0  0  0  0  0  0  0  0  0  0  0
  157.6158   39.5145  142.6183 N   0  0  0  0  0  0  0  0  0  0  0  0
  157.3660   40.0564  141.4130 C   0  0  0  0  0  0  0  0  0  0  0  0
  156.3006   39.9473  140.3889 C   0  0  0  0  0  0  0  0  0  0  0  0
  155.3252   39.1794  140.5702 O   0  0  0  0  0  0  0  0  0  0  0  0
  156.4215   40.6902  139.2753 N   0  0  0  0  0  0  0  0  0  0  0  0
  157.4712   41.5117  139.0849 C   0  0  0  0  0  0  0  0  0  0  0  0
  157.5381   42.2390  137.9474 N   0  0  0  0  0  0  0  0  0  0  0  0
  158.4766   41.6584  139.9773 N   0  0  0  0  0  0  0  0  0  0  0  0
  158.4801   40.9692  141.1383 C   0  0  0  0  0  0  0  0  0  0  0  0
  160.1118   46.1261  143.7595 P   0  0  2  0  0  0  0  0  0  0  0  0
  159.4553   46.0582  142.4021 O   0  0  0  0  0  0  0  0  0  0  0  0
  161.1107   47.2195  144.0889 O   0  0  0  0  0  0  0  0  0  0  0  0
  158.9354   46.1254  144.8666 O   0  0  0  0  0  0  0  0  0  0  0  0
  159.2204   46.4994  146.2139 C   0  0  0  0  0  0  0  0  0  0  0  0
  158.1622   46.0159  147.2105 C   0  0  1  0  0  0  0  0  0  0  0  0
  156.9793   46.8046  147.0634 O   0  0  0  0  0  0  0  0  0  0  0  0
  157.7427   44.5562  147.0516 C   0  0  1  0  0  0  0  0  0  0  0  0
  158.4766   43.6857  147.9116 O   0  0  0  0  0  0  0  0  0  0  0  0
  156.2728   44.6004  147.4253 C   0  0  1  0  0  0  0  0  0  0  0  0
  156.1027   44.4589  148.8384 O   0  0  0  0  0  0  0  0  0  0  0  0
  155.8039   45.9901  147.0482 C   0  0  2  0  0  0  0  0  0  0  0  0
  155.2541   45.9711  145.6699 N   0  0  0  0  0  0  0  0  0  0  0  0
  155.8651   46.4609  144.5730 C   0  0  0  0  0  0  0  0  0  0  0  0
  155.1128   46.2838  143.4514 N   0  0  0  0  0  0  0  0  0  0  0  0
  153.9864   45.6567  143.8257 C   0  0  0  0  0  0  0  0  0  0  0  0
  152.7536   45.1762  143.1512 C   0  0  0  0  0  0  0  0  0  0  0  0
  152.5756   45.2930  141.9196 O   0  0  0  0  0  0  0  0  0  0  0  0
  151.8303   44.5806  143.9079 N   0  0  0  0  0  0  0  0  0  0  0  0
  151.9768   44.4254  145.2328 C   0  0  0  0  0  0  0  0  0  0  0  0
  150.9792   43.8246  145.8983 N   0  0  0  0  0  0  0  0  0  0  0  0
  153.0654   44.8436  145.9202 N   0  0  0  0  0  0  0  0  0  0  0  0
  154.0863   45.4567  145.2853 C   0  0  0  0  0  0  0  0  0  0  0  0
  1  3  2  6  0  0  0
  1 32  1  0  0  0  0
  1  2  1  0  0  0  0
  1  4  1  0  0  0  0
  4  5  1  0  0  0  0
  6  5  1  1  0  0  0
  7  6  1  0  0  0  0
  8  6  1  0  0  0  0
  8 10  1  0  0  0  0
  8  9  1  6  0  0  0
 10 11  1  6  0  0  0
 12 13  1  1  0  0  0
 12  7  1  0  0  0  0
 12 10  1  0  0  0  0
 14 13  1  0  0  0  0
 15 16  1  0  0  0  0
 15 14  2  0  0  0  0
 16 23  2  0  0  0  0
 17 16  1  0  0  0  0
 17 19  1  0  0  0  0
 18 17  2  0  0  0  0
 19 20  2  0  0  0  0
 20 22  1  0  0  0  0
 20 21  1  0  0  0  0
 23 13  1  0  0  0  0
 23 22  1  0  0  0  0
 24 25  2  6  0  0  0
 24  9  1  0  0  0  0
 24 26  1  0  0  0  0
 27 28  1  0  0  0  0
 27 24  1  0  0  0  0
 29 30  1  6  0  0  0
 29 28  1  0  0  0  0
 31 32  1  1  0  0  0
 31 29  1  0  0  0  0
 33 34  1  1  0  0  0
 33 35  1  0  0  0  0
 33 31  1  0  0  0  0
 35 36  1  6  0  0  0
 35 30  1  0  0  0  0
 36 37  1  0  0  0  0
 38 37  2  0  0  0  0
 39 38  1  0  0  0  0
 40 41  2  0  0  0  0
 40 39  1  0  0  0  0
 42 40  1  0  0  0  0
 43 42  2  0  0  0  0
 43 45  1  0  0  0  0
 44 43  1  0  0  0  0
 45 46  1  0  0  0  0
 46 39  2  0  0  0  0
 46 36  1  0  0  0  0
M  END
>  <CHROM.1>
-0.68703699,9.49782371,157.56290501,43.58240111,144.23209860,-2.12168840
0.18439329,-2.12403454

>  <Name>
lig.pdb

>  <RI>
0

>  <Rbt.Current_Directory>
/home/itssahil/PROJECTS/Mol_Feturizer/New_Systems/rnas/4yb0

>  <Rbt.Executable>
rbdock ($Id: //depot/dev/client3/rdock/2013.1/src/exe/rbdock.cxx#4 $)

>  <Rbt.Library>
libRbt.so (2013.1, Build901 2013/11/27)

>  <Rbt.Parameter_File>
/export/apps/rDock/src/rDock_2013.1_src/data/scripts/dock_solv.prm

>  <Rbt.Receptor>
prm/pocket_docking_4.prm

>  <SCORE>
-50.5302

>  <SCORE.INTER>
-50.5585

>  <SCORE.INTER.CONST>
1

>  <SCORE.INTER.POLAR>
0

>  <SCORE.INTER.ROT>
2

>  <SCORE.INTER.SOLV>
28.9736

>  <SCORE.INTER.VDW>
-48.2969

>  <SCORE.INTER.norm>
-1.0991

>  <SCORE.INTRA>
0.0282509

>  <SCORE.INTRA.DIHEDRAL>
0.0865349

>  <SCORE.INTRA.DIHEDRAL.0>
4.74153

>  <SCORE.INTRA.POLAR>
0

>  <SCORE.INTRA.POLAR.0>
0

>  <SCORE.INTRA.REPUL>
0

>  <SCORE.INTRA.REPUL.0>
0

>  <SCORE.INTRA.SOLV>
0.110067

>  <SCORE.INTRA.SOLV.lig_0>
-60.4375

>  <SCORE.INTRA.VDW>
-0.0700501

>  <SCORE.INTRA.VDW.0>
-1.83689

>  <SCORE.INTRA.norm>
0.00061415

>  <SCORE.RESTR>
0

>  <SCORE.RESTR.CAVITY>
0

>  <SCORE.RESTR.norm>
0

>  <SCORE.SYSTEM>
0

>  <SCORE.SYSTEM.CONST>
0

>  <SCORE.SYSTEM.DIHEDRAL>
0

>  <SCORE.SYSTEM.SOLV>
0

>  <SCORE.SYSTEM.norm>
0

>  <SCORE.heavy>
46

>  <SCORE.norm>
-1.09848

>  <RMSD>
0.476

$$$$
lig.pdb
 OpenBabel11021811523D
libRbt.so/2013.1/901 2013/11/27
 46 52  0  0  0  0  0  0  0  0999 V2000
  159.6599   46.2377  143.4101 P   0  0  2  0  0  0  0  0  0  0  0  0
  160.3007   47.5776  143.6988 O   0  0  0  0  0  0  0  0  0  0  0  0
  159.1735   46.0085  142.0023 O   0  0  0  0  0  0  0  0  0  0  0  0
  158.4431   45.9423  144.4188 O   0  0  0  0  0  0  0  0  0  0  0  0
  158.1981   46.7664  145.5510 C   0  0  0  0  0  0  0  0  0  0  0  0
  157.2706   46.0541  146.5216 C   0  0  1  0  0  0  0  0  0  0  0  0
  155.9734   46.6162  146.3827 O   0  0  0  0  0  0  0  0  0  0  0  0
  157.1110   44.5551  146.3016 C   0  0  1  0  0  0  0  0  0  0  0  0
  157.8655   43.8464  147.2737 O   0  0  0  0  0  0  0  0  0  0  0  0
  155.6440   44.3128  146.5776 C   0  0  1  0  0  0  0  0  0  0  0  0
  155.4589   44.0176  147.9634 O   0  0  0  0  0  0  0  0  0  0  0  0
  154.9609   45.6238  146.3167 C   0  0  2  0  0  0  0  0  0  0  0  0
  154.3953   45.6139  144.9467 N   0  0  0  0  0  0  0  0  0  0  0  0
  155.0084   46.0754  143.8428 C   0  0  0  0  0  0  0  0  0  0  0  0
  154.2100   45.9310  142.7579 N   0  0  0  0  0  0  0  0  0  0  0  0
  153.0576   45.3667  143.1609 C   0  0  0  0  0  0  0  0  0  0  0  0
  151.7915   44.9402  142.5197 C   0  0  0  0  0  0  0  0  0  0  0  0
  151.6230   45.0965  141.2864 O   0  0  0  0  0  0  0  0  0  0  0  0
  150.8460   44.3906  143.3011 N   0  0  0  0  0  0  0  0  0  0  0  0
  151.0312   44.2264  144.6246 C   0  0  0  0  0  0  0  0  0  0  0  0
  150.0471   43.6633  145.3606 N   0  0  0  0  0  0  0  0  0  0  0  0
  152.1603   44.5932  145.2722 N   0  0  0  0  0  0  0  0  0  0  0  0
  153.1896   45.1591  144.6063 C   0  0  0  0  0  0  0  0  0  0  0  0
  158.1555   42.2512  147.1885 P   0  0  2  0  0  0  0  0  0  0  0  0
  156.8585   41.5249  146.9264 O   0  0  0  0  0  0  0  0  0  0  0  0
  159.0075   41.9141  148.3978 O   0  0  0  0  0  0  0  0  0  0  0  0
  159.0546   42.1338  145.8516 O   0  0  0  0  0  0  0  0  0  0  0  0
  160.4474   42.4413  145.8964 C   0  0  0  0  0  0  0  0  0  0  0  0
  161.0453   42.7322  144.5164 C   0  0  1  0  0  0  0  0  0  0  0  0
  161.1662   41.5094  143.7864 O   0  0  0  0  0  0  0  0  0  0  0  0
  160.2311   43.6875  143.6467 C   0  0  1  0  0  0  0  0  0  0  0  0
  160.6777   45.0378  143.7617 O   0  0  0  0  0  0  0  0  0  0  0  0
  160.4699   43.1379  142.2528 C   0  0  1  0  0  0  0  0  0  0  0  0
  161.6602   43.6912  141.6848 O   0  0  0  0  0  0  0  0  0  0  0  0
  160.7038   41.6535  142.4408 C   0  0  2  0  0  0  0  0  0  0  0  0
  159.4180   40.9267  142.2974 N   0  0  0  0  0  0  0  0  0  0  0  0
  158.8991   40.0629  143.1926 C   0  0  0  0  0  0  0  0  0  0  0  0
  157.6986   39.5672  142.7824 N   0  0  0  0  0  0  0  0  0  0  0  0
  157.4250   40.1271  141.5933 C   0  0  0  0  0  0  0  0  0  0  0  0
  156.3284   40.0397  140.5955 C   0  0  0  0  0  0  0  0  0  0  0  0
  155.3216   39.3198  140.7689 O   0  0  0  0  0  0  0  0  0  0  0  0
  156.4369   40.7859  139.4950 N   0  0  0  0  0  0  0  0  0  0  0  0
  157.4944   41.5794  139.2652 C   0  0  0  0  0  0  0  0  0  0  0  0
  157.5067   42.2756  138.1186 N   0  0  0  0  0  0  0  0  0  0  0  0
  158.5358   41.7062  140.1206 N   0  0  0  0  0  0  0  0  0  0  0  0
  158.5608   41.0176  141.2810 C   0  0  0  0  0  0  0  0  0  0  0  0
  1  3  2  6  0  0  0
  1 32  1  0  0  0  0
  1  2  1  0  0  0  0
  1  4  1  0  0  0  0
  4  5  1  0  0  0  0
  6  5  1  6  0  0  0
  7  6  1  0  0  0  0
  8  6  1  0  0  0  0
  8 10  1  0  0  0  0
  8  9  1  1  0  0  0
 10 11  1  1  0  0  0
 12 13  1  6  0  0  0
 12  7  1  0  0  0  0
 12 10  1  0  0  0  0
 14 13  1  0  0  0  0
 15 16  1  0  0  0  0
 15 14  2  0  0  0  0
 16 23  2  0  0  0  0
 17 16  1  0  0  0  0
 17 19  1  0  0  0  0
 18 17  2  0  0  0  0
 19 20  2  0  0  0  0
 20 22  1  0  0  0  0
 20 21  1  0  0  0  0
 23 13  1  0  0  0  0
 23 22  1  0  0  0  0
 24 25  2  6  0  0  0
 24  9  1  0  0  0  0
 24 26  1  0  0  0  0
 27 28  1  0  0  0  0
 27 24  1  0  0  0  0
 29 30  1  6  0  0  0
 29 28  1  0  0  0  0
 31 32  1  6  0  0  0
 31 29  1  0  0  0  0
 33 34  1  1  0  0  0
 33 35  1  0  0  0  0
 33 31  1  0  0  0  0
 35 36  1  1  0  0  0
 35 30  1  0  0  0  0
 36 37  1  0  0  0  0
 38 37  2  0  0  0  0
 39 38  1  0  0  0  0
 40 41  2  0  0  0  0
 40 39  1  0  0  0  0
 42 40  1  0  0  0  0
 43 42  2  0  0  0  0
 43 45  1  0  0  0  0
 44 43  1  0  0  0  0
 45 46  1  0  0  0  0
 46 39  2  0  0  0  0
 46 36  1  0  0  0  0
M  END
>  <CHROM.1>
22.08127339,-11.86551860,157.14135412,43.57977845,143.91616631,-0.35256362
-0.16242996,1.00902154

>  <Name>
lig.pdb

>  <RI>
0

>  <Rbt.Current_Directory>
/home/itssahil/PROJECTS/Mol_Feturizer/New_Systems/rnas/4yb0

>  <Rbt.Executable>
rbdock ($Id: //depot/dev/client3/rdock/2013.1/src/exe/rbdock.cxx#4 $)

>  <Rbt.Library>
libRbt.so (2013.1, Build901 2013/11/27)

>  <Rbt.Parameter_File>
/export/apps/rDock/src/rDock_2013.1_src/data/scripts/dock_solv.prm

>  <Rbt.Receptor>
prm/pocket_docking_4.prm

>  <SCORE>
-53.6391

>  <SCORE.INTER>
-53.5318

>  <SCORE.INTER.CONST>
1

>  <SCORE.INTER.POLAR>
0

>  <SCORE.INTER.ROT>
2

>  <SCORE.INTER.SOLV>
31.1678

>  <SCORE.INTER.VDW>
-51.0104

>  <SCORE.INTER.norm>
-1.16373

>  <SCORE.INTRA>
-0.107313

>  <SCORE.INTRA.DIHEDRAL>
-0.0200283

>  <SCORE.INTRA.DIHEDRAL.0>
4.74153

>  <SCORE.INTRA.POLAR>
0

>  <SCORE.INTRA.POLAR.0>
0

>  <SCORE.INTRA.REPUL>
0

>  <SCORE.INTRA.REPUL.0>
0

>  <SCORE.INTRA.SOLV>
0.000333612

>  <SCORE.INTRA.SOLV.lig_0>
-60.4375

>  <SCORE.INTRA.VDW>
-0.0974659

>  <SCORE.INTRA.VDW.0>
-1.83689

>  <SCORE.INTRA.norm>
-0.0023329

>  <SCORE.RESTR>
0

>  <SCORE.RESTR.CAVITY>
0

>  <SCORE.RESTR.norm>
0

>  <SCORE.SYSTEM>
0

>  <SCORE.SYSTEM.CONST>
0

>  <SCORE.SYSTEM.DIHEDRAL>
0

>  <SCORE.SYSTEM.SOLV>
0

>  <SCORE.SYSTEM.norm>
0

>  <SCORE.heavy>
46

>  <SCORE.norm>
-1.16607

>  <RMSD>
0.476

$$$$
lig.pdb
 OpenBabel11021811523D
libRbt.so/2013.1/901 2013/11/27
 46 52  0  0  0  0  0  0  0  0999 V2000
  158.6218   42.1168  147.5170 P   0  0  2  0  0  0  0  0  0  0  0  0
  159.5256   41.3996  148.4959 O   0  0  0  0  0  0  0  0  0  0  0  0
  157.2261   41.5710  147.3583 O   0  0  0  0  0  0  0  0  0  0  0  0
  159.2957   42.2107  146.0602 O   0  0  0  0  0  0  0  0  0  0  0  0
  160.6535   41.8496  145.8436 C   0  0  0  0  0  0  0  0  0  0  0  0
  161.1303   42.3966  144.5082 C   0  0  1  0  0  0  0  0  0  0  0  0
  161.1560   41.3235  143.5777 O   0  0  0  0  0  0  0  0  0  0  0  0
  160.2544   43.4776  143.8877 C   0  0  1  0  0  0  0  0  0  0  0  0
  160.8647   44.7475  144.0652 O   0  0  0  0  0  0  0  0  0  0  0  0
  160.2789   43.1469  142.4122 C   0  0  1  0  0  0  0  0  0  0  0  0
  161.3694   43.8259  141.7864 O   0  0  0  0  0  0  0  0  0  0  0  0
  160.5767   41.6779  142.3313 C   0  0  2  0  0  0  0  0  0  0  0  0
  159.3063   40.9318  142.1698 N   0  0  0  0  0  0  0  0  0  0  0  0
  158.7905   40.0620  143.0557 C   0  0  0  0  0  0  0  0  0  0  0  0
  157.6268   39.5443  142.5942 N   0  0  0  0  0  0  0  0  0  0  0  0
  157.3800   40.0847  141.3876 C   0  0  0  0  0  0  0  0  0  0  0  0
  156.3187   39.9718  140.3595 C   0  0  0  0  0  0  0  0  0  0  0  0
  155.3449   39.2011  140.5376 O   0  0  0  0  0  0  0  0  0  0  0  0
  156.4416   40.7143  139.2460 N   0  0  0  0  0  0  0  0  0  0  0  0
  157.4896   41.5388  139.0590 C   0  0  0  0  0  0  0  0  0  0  0  0
  157.5587   42.2656  137.9213 N   0  0  0  0  0  0  0  0  0  0  0  0
  158.4912   41.6891  139.9551 N   0  0  0  0  0  0  0  0  0  0  0  0
  158.4923   41.0006  141.1165 C   0  0  0  0  0  0  0  0  0  0  0  0
  160.1010   46.1516  143.7802 P   0  0  2  0  0  0  0  0  0  0  0  0
  159.4433   46.0915  142.4230 O   0  0  0  0  0  0  0  0  0  0  0  0
  161.0959   47.2465  144.1169 O   0  0  0  0  0  0  0  0  0  0  0  0
  158.9259   46.1377  144.8885 O   0  0  0  0  0  0  0  0  0  0  0  0
  159.2109   46.5024  146.2384 C   0  0  0  0  0  0  0  0  0  0  0  0
  158.1558   46.0070  147.2323 C   0  0  1  0  0  0  0  0  0  0  0  0
  156.9696   46.7920  147.0927 O   0  0  0  0  0  0  0  0  0  0  0  0
  157.7420   44.5469  147.0626 C   0  0  1  0  0  0  0  0  0  0  0  0
  158.4804   43.6727  147.9151 O   0  0  0  0  0  0  0  0  0  0  0  0
  156.2724   44.5823  147.4383 C   0  0  1  0  0  0  0  0  0  0  0  0
  156.1044   44.4292  148.8504 O   0  0  0  0  0  0  0  0  0  0  0  0
  155.7975   45.9730  147.0724 C   0  0  2  0  0  0  0  0  0  0  0  0
  155.2462   45.9623  145.6947 N   0  0  0  0  0  0  0  0  0  0  0  0
  155.8570   46.4569  144.5997 C   0  0  0  0  0  0  0  0  0  0  0  0
  155.1032   46.2872  143.4780 N   0  0  0  0  0  0  0  0  0  0  0  0
  153.9760   45.6602  143.8501 C   0  0  0  0  0  0  0  0  0  0  0  0
  152.7415   45.1856  143.1743 C   0  0  0  0  0  0  0  0  0  0  0  0
  152.5626   45.3094  141.9436 O   0  0  0  0  0  0  0  0  0  0  0  0
  151.8180   44.5877  143.9288 N   0  0  0  0  0  0  0  0  0  0  0  0
  151.9656   44.4252  145.2527 C   0  0  0  0  0  0  0  0  0  0  0  0
  150.9675   43.8226  145.9160 N   0  0  0  0  0  0  0  0  0  0  0  0
  153.0556   44.8376  145.9411 N   0  0  0  0  0  0  0  0  0  0  0  0
  154.0771   45.4522  145.3085 C   0  0  0  0  0  0  0  0  0  0  0  0
  1  3  2  6  0  0  0
  1 32  1  0  0  0  0
  1  2  1  0  0  0  0
  1  4  1  0  0  0  0
  4  5  1  0  0  0  0
  6  5  1  1  0  0  0
  7  6  1  0  0  0  0
  8  6  1  0  0  0  0
  8 10  1  0  0  0  0
  8  9  1  6  0  0  0
 10 11  1  6  0  0  0
 12 13  1  1  0  0  0
 12  7  1  0  0  0  0
 12 10  1  0  0  0  0
 14 13  1  0  0  0  0
 15 16  1  0  0  0  0
 15 14  2  0  0  0  0
 16 23  2  0  0  0  0
 17 16  1  0  0  0  0
 17 19  1  0  0  0  0
 18 17  2  0  0  0  0
 19 20  2  0  0  0  0
 20 22  1  0  0  0  0
 20 21  1  0  0  0  0
 23 13  1  0  0  0  0
 23 22  1  0  0  0  0
 24 25  2  6  0  0  0
 24  9  1  0  0  0  0
 24 26  1  0  0  0  0
 27 28  1  0  0  0  0
 27 24  1  0  0  0  0
 29 30  1  6  0  0  0
 29 28  1  0  0  0  0
 31 32  1  1  0  0  0
 31 29  1  0  0  0  0
 33 34  1  1  0  0  0
 33 35  1  0  0  0  0
 33 31  1  0  0  0  0
 35 36  1  6  0  0  0
 35 30  1  0  0  0  0
 36 37  1  0  0  0  0
 38 37  2  0  0  0  0
 39 38  1  0  0  0  0
 40 41  2  0  0  0  0
 40 39  1  0  0  0  0
 42 40  1  0  0  0  0
 43 42  2  0  0  0  0
 43 45  1  0  0  0  0
 44 43  1  0  0  0  0
 45 46  1  0  0  0  0
 46 39  2  0  0  0  0
 46 36  1  0  0  0  0
M  END
>  <CHROM.1>
-0.12994145,9.86070348,157.56358024,43.59354012,144.23495665,-2.12231930
0.18119816,-2.11680282

>  <Name>
lig.pdb

>  <RI>
0

>  <Rbt.Current_Directory>
/home/itssahil/PROJECTS/Mol_Feturizer/New_Systems/rnas/4yb0

>  <Rbt.Executable>
rbdock ($Id: //depot/dev/client3/rdock/2013.1/src/exe/rbdock.cxx#4 $)

>  <Rbt.Library>
libRbt.so (2013.1, Build901 2013/11/27)

>  <Rbt.Parameter_File>
/export/apps/rDock/src/rDock_2013.1_src/data/scripts/dock_solv.prm

>  <Rbt.Receptor>
prm/pocket_docking_4.prm

>  <SCORE>
-50.5204

>  <SCORE.INTER>
-50.5417

>  <SCORE.INTER.CONST>
1

>  <SCORE.INTER.POLAR>
0

>  <SCORE.INTER.ROT>
2

>  <SCORE.INTER.SOLV>
28.9876

>  <SCORE.INTER.VDW>
-48.2903

>  <SCORE.INTER.norm>
-1.09873

>  <SCORE.INTRA>
0.0213123

>  <SCORE.INTRA.DIHEDRAL>
0.0862116

>  <SCORE.INTRA.DIHEDRAL.0>
4.74153

>  <SCORE.INTRA.POLAR>
0

>  <SCORE.INTRA.POLAR.0>
0

>  <SCORE.INTRA.REPUL>
0

>  <SCORE.INTRA.REPUL.0>
0

>  <SCORE.INTRA.SOLV>
0.108655

>  <SCORE.INTRA.SOLV.lig_0>
-60.4375

>  <SCORE.INTRA.VDW>
-0.076121

>  <SCORE.INTRA.VDW.0>
-1.83689

>  <SCORE.INTRA.norm>
0.000463312

>  <SCORE.RESTR>
0

>  <SCORE.RESTR.CAVITY>
0

>  <SCORE.RESTR.norm>
0

>  <SCORE.SYSTEM>
0

>  <SCORE.SYSTEM.CONST>
0

>  <SCORE.SYSTEM.DIHEDRAL>
0

>  <SCORE.SYSTEM.SOLV>
0

>  <SCORE.SYSTEM.norm>
0

>  <SCORE.heavy>
46

>  <SCORE.norm>
-1.09827

>  <RMSD>
0.477

$$$$
lig.pdb
 OpenBabel11021811523D
libRbt.so/2013.1/901 2013/11/27
 46 52  0  0  0  0  0  0  0  0999 V2000
  159.6510   46.2830  143.5146 P   0  0  2  0  0  0  0  0  0  0  0  0
  160.2886   47.6193  143.8265 O   0  0  0  0  0  0  0  0  0  0  0  0
  159.1902   46.0667  142.0962 O   0  0  0  0  0  0  0  0  0  0  0  0
  158.4154   45.9812  144.4982 O   0  0  0  0  0  0  0  0  0  0  0  0
  158.1511   46.7961  145.6328 C   0  0  0  0  0  0  0  0  0  0  0  0
  157.2047   46.0772  146.5801 C   0  0  1  0  0  0  0  0  0  0  0  0
  155.9112   46.6428  146.4222 O   0  0  0  0  0  0  0  0  0  0  0  0
  157.0467   44.5804  146.3443 C   0  0  1  0  0  0  0  0  0  0  0  0
  157.7821   43.8621  147.3240 O   0  0  0  0  0  0  0  0  0  0  0  0
  155.5745   44.3384  146.5913 C   0  0  1  0  0  0  0  0  0  0  0  0
  155.3635   44.0317  147.9709 O   0  0  0  0  0  0  0  0  0  0  0  0
  154.8984   45.6528  146.3292 C   0  0  2  0  0  0  0  0  0  0  0  0
  154.3581   45.6556  144.9490 N   0  0  0  0  0  0  0  0  0  0  0  0
  154.9789   46.1542  143.8658 C   0  0  0  0  0  0  0  0  0  0  0  0
  154.2042   46.0112  142.7637 N   0  0  0  0  0  0  0  0  0  0  0  0
  153.0596   45.4100  143.1343 C   0  0  0  0  0  0  0  0  0  0  0  0
  151.8166   44.9642  142.4617 C   0  0  0  0  0  0  0  0  0  0  0  0
  151.6664   45.1406  141.2287 O   0  0  0  0  0  0  0  0  0  0  0  0
  150.8716   44.3756  143.2147 N   0  0  0  0  0  0  0  0  0  0  0  0
  151.0371   44.1900  144.5380 C   0  0  0  0  0  0  0  0  0  0  0  0
  150.0547   43.5877  145.2447 N   0  0  0  0  0  0  0  0  0  0  0  0
  152.1446   44.5725  145.2133 N   0  0  0  0  0  0  0  0  0  0  0  0
  153.1708   45.1772  144.5776 C   0  0  0  0  0  0  0  0  0  0  0  0
  158.0710   42.2671  147.2304 P   0  0  2  0  0  0  0  0  0  0  0  0
  156.7778   41.5455  146.9384 O   0  0  0  0  0  0  0  0  0  0  0  0
  158.9001   41.9182  148.4522 O   0  0  0  0  0  0  0  0  0  0  0  0
  158.9942   42.1596  145.9092 O   0  0  0  0  0  0  0  0  0  0  0  0
  160.3864   42.4641  145.9823 C   0  0  0  0  0  0  0  0  0  0  0  0
  161.0101   42.7657  144.6160 C   0  0  1  0  0  0  0  0  0  0  0  0
  161.1424   41.5490  143.8779 O   0  0  0  0  0  0  0  0  0  0  0  0
  160.2135   43.7299  143.7398 C   0  0  1  0  0  0  0  0  0  0  0  0
  160.6602   45.0784  143.8745 O   0  0  0  0  0  0  0  0  0  0  0  0
  160.4770   43.1918  142.3458 C   0  0  1  0  0  0  0  0  0  0  0  0
  161.6785   43.7478  141.8045 O   0  0  0  0  0  0  0  0  0  0  0  0
  160.7050   41.7054  142.5253 C   0  0  2  0  0  0  0  0  0  0  0  0
  159.4208   40.9822  142.3522 N   0  0  0  0  0  0  0  0  0  0  0  0
  158.9136   40.0665  143.2011 C   0  0  0  0  0  0  0  0  0  0  0  0
  157.7113   39.5895  142.7740 N   0  0  0  0  0  0  0  0  0  0  0  0
  157.4246   40.2151  141.6213 C   0  0  0  0  0  0  0  0  0  0  0  0
  156.3193   40.1798  140.6300 C   0  0  0  0  0  0  0  0  0  0  0  0
  155.3170   39.4466  140.7710 O   0  0  0  0  0  0  0  0  0  0  0  0
  156.4147   40.9881  139.5730 N   0  0  0  0  0  0  0  0  0  0  0  0
  157.4669   41.7982  139.3794 C   0  0  0  0  0  0  0  0  0  0  0  0
  157.4659   42.5587  138.2744 N   0  0  0  0  0  0  0  0  0  0  0  0
  158.5156   41.8806  140.2313 N   0  0  0  0  0  0  0  0  0  0  0  0
  158.5539   41.1271  141.3502 C   0  0  0  0  0  0  0  0  0  0  0  0
  1  3  2  6  0  0  0
  1 32  1  0  0  0  0
  1  2  1  0  0  0  0
  1  4  1  0  0  0  0
  4  5  1  0  0  0  0
  6  5  1  6  0  0  0
  7  6  1  0  0  0  0
  8  6  1  0  0  0  0
  8 10  1  0  0  0  0
  8  9  1  1  0  0  0
 10 11  1  1  0  0  0
 12 13  1  6  0  0  0
 12  7  1  0  0  0  0
 12 10  1  0  0  0  0
 14 13  1  0  0  0  0
 15 16  1  0  0  0  0
 15 14  2  0  0  0  0
 16 23  2  0  0  0  0
 17 16  1  0  0  0  0
 17 19  1  0  0  0  0
 18 17  2  0  0  0  0
 19 20  2  0  0  0  0
 20 22  1  0  0  0  0
 20 21  1  0  0  0  0
 23 13  1  0  0  0  0
 23 22  1  0  0  0  0
 24 25  2  6  0  0  0
 24  9  1  0  0  0  0
 24 26  1  0  0  0  0
 27 28  1  0  0  0  0
 27 24  1  0  0  0  0
 29 30  1  6  0  0  0
 29 28  1  0  0  0  0
 31 32  1  6  0  0  0
 31 29  1  0  0  0  0
 33 34  1  1  0  0  0
 33 35  1  0  0  0  0
 33 31  1  0  0  0  0
 35 36  1  1  0  0  0
 35 30  1  0  0  0  0
 36 37  1  0  0  0  0
 38 37  2  0  0  0  0
 39 38  1  0  0  0  0
 40 41  2  0  0  0  0
 40 39  1  0  0  0  0
 42 40  1  0  0  0  0
 43 42  2  0  0  0  0
 43 45  1  0  0  0  0
 44 43  1  0  0  0  0
 45 46  1  0  0  0  0
 46 39  2  0  0  0  0
 46 36  1  0  0  0  0
M  END
>  <CHROM.1>
20.39872283,-15.07723509,157.11459161,43.62978175,143.95865029,-0.30525937
-0.16973691,1.02324062

>  <Name>
lig.pdb

>  <RI>
0

>  <Rbt.Current_Directory>
/home/itssahil/PROJECTS/Mol_Feturizer/New_Systems/rnas/4yb0

>  <Rbt.Executable>
rbdock ($Id: //depot/dev/client3/rdock/2013.1/src/exe/rbdock.cxx#4 $)

>  <Rbt.Library>
libRbt.so (2013.1, Build901 2013/11/27)

>  <Rbt.Parameter_File>
/export/apps/rDock/src/rDock_2013.1_src/data/scripts/dock_solv.prm

>  <Rbt.Receptor>
prm/pocket_docking_5.prm

>  <SCORE>
-53.5795

>  <SCORE.INTER>
-53.5025

>  <SCORE.INTER.CONST>
1

>  <SCORE.INTER.POLAR>
0

>  <SCORE.INTER.ROT>
2

>  <SCORE.INTER.SOLV>
30.6655

>  <SCORE.INTER.VDW>
-50.8235

>  <SCORE.INTER.norm>
-1.1631

>  <SCORE.INTRA>
-0.0769658

>  <SCORE.INTRA.DIHEDRAL>
-0.0258297

>  <SCORE.INTRA.DIHEDRAL.0>
4.74153

>  <SCORE.INTRA.POLAR>
0

>  <SCORE.INTRA.POLAR.0>
0

>  <SCORE.INTRA.REPUL>
0

>  <SCORE.INTRA.REPUL.0>
0

>  <SCORE.INTRA.SOLV>
-0.0109237

>  <SCORE.INTRA.SOLV.lig_0>
-60.4375

>  <SCORE.INTRA.VDW>
-0.0585891

>  <SCORE.INTRA.VDW.0>
-1.83689

>  <SCORE.INTRA.norm>
-0.00167317

>  <SCORE.RESTR>
0

>  <SCORE.RESTR.CAVITY>
0

>  <SCORE.RESTR.norm>
0

>  <SCORE.SYSTEM>
0

>  <SCORE.SYSTEM.CONST>
0

>  <SCORE.SYSTEM.DIHEDRAL>
0

>  <SCORE.SYSTEM.SOLV>
0

>  <SCORE.SYSTEM.norm>
0

>  <SCORE.heavy>
46

>  <SCORE.norm>
-1.16477

>  <RMSD>
0.477

$$$$
lig.pdb
 OpenBabel11021811523D
libRbt.so/2013.1/901 2013/11/27
 46 52  0  0  0  0  0  0  0  0999 V2000
  159.6405   46.2840  143.4398 P   0  0  2  0  0  0  0  0  0  0  0  0
  160.2753   47.6252  143.7362 O   0  0  0  0  0  0  0  0  0  0  0  0
  159.1624   46.0577  142.0287 O   0  0  0  0  0  0  0  0  0  0  0  0
  158.4194   45.9813  144.4410 O   0  0  0  0  0  0  0  0  0  0  0  0
  158.1656   46.8010  145.5745 C   0  0  0  0  0  0  0  0  0  0  0  0
  157.2353   46.0825  146.5379 C   0  0  1  0  0  0  0  0  0  0  0  0
  155.9370   46.6407  146.3939 O   0  0  0  0  0  0  0  0  0  0  0  0
  157.0819   44.5837  146.3123 C   0  0  1  0  0  0  0  0  0  0  0  0
  157.8337   43.8744  147.2861 O   0  0  0  0  0  0  0  0  0  0  0  0
  155.6143   44.3355  146.5797 C   0  0  1  0  0  0  0  0  0  0  0  0
  155.4228   44.0353  147.9636 O   0  0  0  0  0  0  0  0  0  0  0  0
  154.9282   45.6451  146.3194 C   0  0  2  0  0  0  0  0  0  0  0  0
  154.3700   45.6377  144.9464 N   0  0  0  0  0  0  0  0  0  0  0  0
  154.9836   46.1130  143.8487 C   0  0  0  0  0  0  0  0  0  0  0  0
  154.1926   45.9668  142.7586 N   0  0  0  0  0  0  0  0  0  0  0  0
  153.0445   45.3871  143.1519 C   0  0  0  0  0  0  0  0  0  0  0  0
  151.7866   44.9506  142.5013 C   0  0  0  0  0  0  0  0  0  0  0  0
  151.6228   45.1130  141.2681 O   0  0  0  0  0  0  0  0  0  0  0  0
  150.8432   44.3856  143.2742 N   0  0  0  0  0  0  0  0  0  0  0  0
  151.0232   44.2150  144.5976 C   0  0  0  0  0  0  0  0  0  0  0  0
  150.0417   43.6363  145.3248 N   0  0  0  0  0  0  0  0  0  0  0  0
  152.1448   44.5902  145.2534 N   0  0  0  0  0  0  0  0  0  0  0  0
  153.1712   45.1717  144.5966 C   0  0  0  0  0  0  0  0  0  0  0  0
  158.1295   42.2804  147.1974 P   0  0  2  0  0  0  0  0  0  0  0  0
  156.8364   41.5507  146.9261 O   0  0  0  0  0  0  0  0  0  0  0  0
  158.9761   41.9424  148.4101 O   0  0  0  0  0  0  0  0  0  0  0  0
  159.0360   42.1704  145.8649 O   0  0  0  0  0  0  0  0  0  0  0  0
  160.4275   42.4823  145.9182 C   0  0  0  0  0  0  0  0  0  0  0  0
  161.0318   42.7797  144.5423 C   0  0  1  0  0  0  0  0  0  0  0  0
  161.1607   41.5596  143.8091 O   0  0  0  0  0  0  0  0  0  0  0  0
  160.2190   43.7350  143.6713 C   0  0  1  0  0  0  0  0  0  0  0  0
  160.6605   45.0865  143.7930 O   0  0  0  0  0  0  0  0  0  0  0  0
  160.4671   43.1907  142.2770 C   0  0  1  0  0  0  0  0  0  0  0  0
  161.6586   43.7498  141.7171 O   0  0  0  0  0  0  0  0  0  0  0  0
  160.7050   41.7065  142.4615 C   0  0  2  0  0  0  0  0  0  0  0  0
  159.4224   40.9758  142.3090 N   0  0  0  0  0  0  0  0  0  0  0  0
  158.9266   40.0688  143.1739 C   0  0  0  0  0  0  0  0  0  0  0  0
  157.7227   39.5816  142.7636 N   0  0  0  0  0  0  0  0  0  0  0  0
  157.4231   40.1914  141.6057 C   0  0  0  0  0  0  0  0  0  0  0  0
  156.3092   40.1390  140.6248 C   0  0  0  0  0  0  0  0  0  0  0  0
  155.3113   39.4035  140.7840 O   0  0  0  0  0  0  0  0  0  0  0  0
  156.3917   40.9342  139.5569 N   0  0  0  0  0  0  0  0  0  0  0  0
  157.4388   41.7461  139.3437 C   0  0  0  0  0  0  0  0  0  0  0  0
  157.4247   42.4925  138.2293 N   0  0  0  0  0  0  0  0  0  0  0  0
  158.4946   41.8436  140.1851 N   0  0  0  0  0  0  0  0  0  0  0  0
  158.5461   41.1045  141.3131 C   0  0  0  0  0  0  0  0  0  0  0  0
  1  3  2  6  0  0  0
  1 32  1  0  0  0  0
  1  2  1  0  0  0  0
  1  4  1  0  0  0  0
  4  5  1  0  0  0  0
  6  5  1  6  0  0  0
  7  6  1  0  0  0  0
  8  6  1  0  0  0  0
  8 10  1  0  0  0  0
  8  9  1  1  0  0  0
 10 11  1  1  0  0  0
 12 13  1  6  0  0  0
 12  7  1  0  0  0  0
 12 10  1  0  0  0  0
 14 13  1  0  0  0  0
 15 16  1  0  0  0  0
 15 14  2  0  0  0  0
 16 23  2  0  0  0  0
 17 16  1  0  0  0  0
 17 19  1  0  0  0  0
 18 17  2  0  0  0  0
 19 20  2  0  0  0  0
 20 22  1  0  0  0  0
 20 21  1  0  0  0  0
 23 13  1  0  0  0  0
 23 22  1  0  0  0  0
 24 25  2  6  0  0  0
 24  9  1  0  0  0  0
 24 26  1  0  0  0  0
 27 28  1  0  0  0  0
 27 24  1  0  0  0  0
 29 30  1  6  0  0  0
 29 28  1  0  0  0  0
 31 32  1  6  0  0  0
 31 29  1  0  0  0  0
 33 34  1  1  0  0  0
 33 35  1  0  0  0  0
 33 31  1  0  0  0  0
 35 36  1  1  0  0  0
 35 30  1  0  0  0  0
 36 37  1  0  0  0  0
 38 37  2  0  0  0  0
 39 38  1  0  0  0  0
 40 41  2  0  0  0  0
 40 39  1  0  0  0  0
 42 40  1  0  0  0  0
 43 42  2  0  0  0  0
 43 45  1  0  0  0  0
 44 43  1  0  0  0  0
 45 46  1  0  0  0  0
 46 39  2  0  0  0  0
 46 36  1  0  0  0  0
M  END
>  <CHROM.1>
21.60010510,-14.59848774,157.12227475,43.62451909,143.93079017,-0.32117650
-0.16255227,1.01721794

>  <Name>
lig.pdb

>  <RI>
0

>  <Rbt.Current_Directory>
/home/itssahil/PROJECTS/Mol_Feturizer/New_Systems/rnas/4yb0

>  <Rbt.Executable>
rbdock ($Id: //depot/dev/client3/rdock/2013.1/src/exe/rbdock.cxx#4 $)

>  <Rbt.Library>
libRbt.so (2013.1, Build901 2013/11/27)

>  <Rbt.Parameter_File>
/export/apps/rDock/src/rDock_2013.1_src/data/scripts/dock_solv.prm

>  <Rbt.Receptor>
prm/pocket_docking_2.prm

>  <SCORE>
-53.5867

>  <SCORE.INTER>
-53.4976

>  <SCORE.INTER.CONST>
1

>  <SCORE.INTER.POLAR>
0

>  <SCORE.INTER.ROT>
2

>  <SCORE.INTER.SOLV>
30.9195

>  <SCORE.INTER.VDW>
-50.9049

>  <SCORE.INTER.norm>
-1.16299

>  <SCORE.INTRA>
-0.089109

>  <SCORE.INTRA.DIHEDRAL>
-0.0260403

>  <SCORE.INTRA.DIHEDRAL.0>
4.74153

>  <SCORE.INTRA.POLAR>
0

>  <SCORE.INTRA.POLAR.0>
0

>  <SCORE.INTRA.REPUL>
0

>  <SCORE.INTRA.REPUL.0>
0

>  <SCORE.INTRA.SOLV>
-0.00763528

>  <SCORE.INTRA.SOLV.lig_0>
-60.4375

>  <SCORE.INTRA.VDW>
-0.0722713

>  <SCORE.INTRA.VDW.0>
-1.83689

>  <SCORE.INTRA.norm>
-0.00193715

>  <SCORE.RESTR>
0

>  <SCORE.RESTR.CAVITY>
0

>  <SCORE.RESTR.norm>
0

>  <SCORE.SYSTEM>
0

>  <SCORE.SYSTEM.CONST>
0

>  <SCORE.SYSTEM.DIHEDRAL>
0

>  <SCORE.SYSTEM.SOLV>
0

>  <SCORE.SYSTEM.norm>
0

>  <SCORE.heavy>
46

>  <SCORE.norm>
-1.16493

>  <RMSD>
0.478

$$$$
lig.pdb
 OpenBabel11021811523D
libRbt.so/2013.1/901 2013/11/27
 46 52  0  0  0  0  0  0  0  0999 V2000
  159.6304   46.2522  143.4334 P   0  0  2  0  0  0  0  0  0  0  0  0
  160.2648   47.5957  143.7199 O   0  0  0  0  0  0  0  0  0  0  0  0
  159.1399   46.0205  142.0274 O   0  0  0  0  0  0  0  0  0  0  0  0
  158.4193   45.9498  144.4467 O   0  0  0  0  0  0  0  0  0  0  0  0
  158.1740   46.7723  145.5800 C   0  0  0  0  0  0  0  0  0  0  0  0
  157.2543   46.0546  146.5541 C   0  0  1  0  0  0  0  0  0  0  0  0
  155.9534   46.6094  146.4203 O   0  0  0  0  0  0  0  0  0  0  0  0
  157.1023   44.5548  146.3344 C   0  0  1  0  0  0  0  0  0  0  0  0
  157.8646   43.8502  147.3035 O   0  0  0  0  0  0  0  0  0  0  0  0
  155.6378   44.3041  146.6160 C   0  0  1  0  0  0  0  0  0  0  0  0
  155.4597   44.0077  148.0026 O   0  0  0  0  0  0  0  0  0  0  0  0
  154.9462   45.6113  146.3581 C   0  0  2  0  0  0  0  0  0  0  0  0
  154.3755   45.5984  144.9903 N   0  0  0  0  0  0  0  0  0  0  0  0
  154.9895   46.0455  143.8810 C   0  0  0  0  0  0  0  0  0  0  0  0
  154.1855   45.9027  142.8000 N   0  0  0  0  0  0  0  0  0  0  0  0
  153.0284   45.3541  143.2111 C   0  0  0  0  0  0  0  0  0  0  0  0
  151.7552   44.9374  142.5775 C   0  0  0  0  0  0  0  0  0  0  0  0
  151.5838   45.0872  141.3438 O   0  0  0  0  0  0  0  0  0  0  0  0
  150.8066   44.4038  143.3661 N   0  0  0  0  0  0  0  0  0  0  0  0
  150.9949   44.2466  144.6901 C   0  0  0  0  0  0  0  0  0  0  0  0
  150.0073   43.6995  145.4336 N   0  0  0  0  0  0  0  0  0  0  0  0
  152.1305   44.6051  145.3309 N   0  0  0  0  0  0  0  0  0  0  0  0
  153.1635   45.1548  144.6574 C   0  0  0  0  0  0  0  0  0  0  0  0
  158.1633   42.2567  147.2168 P   0  0  2  0  0  0  0  0  0  0  0  0
  156.8694   41.5232  146.9597 O   0  0  0  0  0  0  0  0  0  0  0  0
  159.0218   41.9243  148.4228 O   0  0  0  0  0  0  0  0  0  0  0  0
  159.0578   42.1446  145.8765 O   0  0  0  0  0  0  0  0  0  0  0  0
  160.4490   42.4600  145.9160 C   0  0  0  0  0  0  0  0  0  0  0  0
  161.0400   42.7545  144.5337 C   0  0  1  0  0  0  0  0  0  0  0  0
  161.1650   41.5325  143.8031 O   0  0  0  0  0  0  0  0  0  0  0  0
  160.2170   43.7052  143.6674 C   0  0  1  0  0  0  0  0  0  0  0  0
  160.6564   45.0581  143.7809 O   0  0  0  0  0  0  0  0  0  0  0  0
  160.4535   43.1572  142.2724 C   0  0  1  0  0  0  0  0  0  0  0  0
  161.6385   43.7174  141.6999 O   0  0  0  0  0  0  0  0  0  0  0  0
  160.6966   41.6741  142.4593 C   0  0  2  0  0  0  0  0  0  0  0  0
  159.4143   40.9401  142.3208 N   0  0  0  0  0  0  0  0  0  0  0  0
  158.8999   40.0794  143.2214 C   0  0  0  0  0  0  0  0  0  0  0  0
  157.7018   39.5752  142.8146 N   0  0  0  0  0  0  0  0  0  0  0  0
  157.4251   40.1263  141.6221 C   0  0  0  0  0  0  0  0  0  0  0  0
  156.3289   40.0272  140.6251 C   0  0  0  0  0  0  0  0  0  0  0  0
  155.3257   39.3034  140.8032 O   0  0  0  0  0  0  0  0  0  0  0  0
  156.4334   40.7671  139.5199 N   0  0  0  0  0  0  0  0  0  0  0  0
  157.4869   41.5643  139.2849 C   0  0  0  0  0  0  0  0  0  0  0  0
  157.4956   42.2533  138.1340 N   0  0  0  0  0  0  0  0  0  0  0  0
  158.5279   41.7016  140.1393 N   0  0  0  0  0  0  0  0  0  0  0  0
  158.5565   41.0204  141.3039 C   0  0  0  0  0  0  0  0  0  0  0  0
  1  3  2  6  0  0  0
  1 32  1  0  0  0  0
  1  2  1  0  0  0  0
  1  4  1  0  0  0  0
  4  5  1  0  0  0  0
  6  5  1  6  0  0  0
  7  6  1  0  0  0  0
  8  6  1  0  0  0  0
  8 10  1  0  0  0  0
  8  9  1  1  0  0  0
 10 11  1  1  0  0  0
 12 13  1  6  0  0  0
 12  7  1  0  0  0  0
 12 10  1  0  0  0  0
 14 13  1  0  0  0  0
 15 16  1  0  0  0  0
 15 14  2  0  0  0  0
 16 23  2  0  0  0  0
 17 16  1  0  0  0  0
 17 19  1  0  0  0  0
 18 17  2  0  0  0  0
 19 20  2  0  0  0  0
 20 22  1  0  0  0  0
 20 21  1  0  0  0  0
 23 13  1  0  0  0  0
 23 22  1  0  0  0  0
 24 25  2  6  0  0  0
 24  9  1  0  0  0  0
 24 26  1  0  0  0  0
 27 28  1  0  0  0  0
 27 24  1  0  0  0  0
 29 30  1  6  0  0  0
 29 28  1  0  0  0  0
 31 32  1  6  0  0  0
 31 29  1  0  0  0  0
 33 34  1  1  0  0  0
 33 35  1  0  0  0  0
 33 31  1  0  0  0  0
 35 36  1  1  0  0  0
 35 30  1  0  0  0  0
 36 37  1  0  0  0  0
 38 37  2  0  0  0  0
 39 38  1  0  0  0  0
 40 41  2  0  0  0  0
 40 39  1  0  0  0  0
 42 40  1  0  0  0  0
 43 42  2  0  0  0  0
 43 45  1  0  0  0  0
 44 43  1  0  0  0  0
 45 46  1  0  0  0  0
 46 39  2  0  0  0  0
 46 36  1  0  0  0  0
M  END
>  <CHROM.1>
23.12685897,-11.44035468,157.12789407,43.58355666,143.94851484,-0.35917797
-0.15912167,1.00953394

>  <Name>
lig.pdb

>  <RI>
0

>  <Rbt.Current_Directory>
/home/itssahil/PROJECTS/Mol_Feturizer/New_Systems/rnas/4yb0

>  <Rbt.Executable>
rbdock ($Id: //depot/dev/client3/rdock/2013.1/src/exe/rbdock.cxx#4 $)

>  <Rbt.Library>
libRbt.so (2013.1, Build901 2013/11/27)

>  <Rbt.Parameter_File>
/export/apps/rDock/src/rDock_2013.1_src/data/scripts/dock_solv.prm

>  <Rbt.Receptor>
prm/pocket_docking_4.prm

>  <SCORE>
-53.7252

>  <SCORE.INTER>
-53.5897

>  <SCORE.INTER.CONST>
1

>  <SCORE.INTER.POLAR>
0

>  <SCORE.INTER.ROT>
2

>  <SCORE.INTER.SOLV>
31.1921

>  <SCORE.INTER.VDW>
-51.0571

>  <SCORE.INTER.norm>
-1.16499

>  <SCORE.INTRA>
-0.135526

>  <SCORE.INTRA.DIHEDRAL>
-0.0198531

>  <SCORE.INTRA.DIHEDRAL.0>
4.74153

>  <SCORE.INTRA.POLAR>
0

>  <SCORE.INTRA.POLAR.0>
0

>  <SCORE.INTRA.REPUL>
0

>  <SCORE.INTRA.REPUL.0>
0

>  <SCORE.INTRA.SOLV>
0.00346654

>  <SCORE.INTRA.SOLV.lig_0>
-60.4375

>  <SCORE.INTRA.VDW>
-0.127333

>  <SCORE.INTRA.VDW.0>
-1.83689

>  <SCORE.INTRA.norm>
-0.00294622

>  <SCORE.RESTR>
0

>  <SCORE.RESTR.CAVITY>
0

>  <SCORE.RESTR.norm>
0

>  <SCORE.SYSTEM>
0

>  <SCORE.SYSTEM.CONST>
0

>  <SCORE.SYSTEM.DIHEDRAL>
0

>  <SCORE.SYSTEM.SOLV>
0

>  <SCORE.SYSTEM.norm>
0

>  <SCORE.heavy>
46

>  <SCORE.norm>
-1.16794

>  <RMSD>
0.478

$$$$
lig.pdb
 OpenBabel11021811523D
libRbt.so/2013.1/901 2013/11/27
 46 52  0  0  0  0  0  0  0  0999 V2000
  159.6383   46.2346  143.3925 P   0  0  2  0  0  0  0  0  0  0  0  0
  160.2826   47.5721  143.6850 O   0  0  0  0  0  0  0  0  0  0  0  0
  159.1387   46.0159  141.9876 O   0  0  0  0  0  0  0  0  0  0  0  0
  158.4308   45.9324  144.4102 O   0  0  0  0  0  0  0  0  0  0  0  0
  158.1969   46.7484  145.5506 C   0  0  0  0  0  0  0  0  0  0  0  0
  157.2780   46.0295  146.5246 C   0  0  1  0  0  0  0  0  0  0  0  0
  155.9799   46.5933  146.4019 O   0  0  0  0  0  0  0  0  0  0  0  0
  157.1154   44.5323  146.2952 C   0  0  1  0  0  0  0  0  0  0  0  0
  157.8785   43.8160  147.2550 O   0  0  0  0  0  0  0  0  0  0  0  0
  155.6509   44.2887  146.5830 C   0  0  1  0  0  0  0  0  0  0  0  0
  155.4785   43.9835  147.9683 O   0  0  0  0  0  0  0  0  0  0  0  0
  154.9662   45.6019  146.3381 C   0  0  2  0  0  0  0  0  0  0  0  0
  154.3879   45.6023  144.9734 N   0  0  0  0  0  0  0  0  0  0  0  0
  154.9950   46.0622  143.8655 C   0  0  0  0  0  0  0  0  0  0  0  0
  154.1853   45.9293  142.7876 N   0  0  0  0  0  0  0  0  0  0  0  0
  153.0315   45.3742  143.1992 C   0  0  0  0  0  0  0  0  0  0  0  0
  151.7556   44.9618  142.5683 C   0  0  0  0  0  0  0  0  0  0  0  0
  151.5771   45.1243  141.3372 O   0  0  0  0  0  0  0  0  0  0  0  0
  150.8123   44.4182  143.3564 N   0  0  0  0  0  0  0  0  0  0  0  0
  151.0082   44.2474  144.6776 C   0  0  0  0  0  0  0  0  0  0  0  0
  150.0257   43.6907  145.4207 N   0  0  0  0  0  0  0  0  0  0  0  0
  152.1466   44.6013  145.3159 N   0  0  0  0  0  0  0  0  0  0  0  0
  153.1749   45.1600  144.6425 C   0  0  0  0  0  0  0  0  0  0  0  0
  158.1668   42.2213  147.1554 P   0  0  2  0  0  0  0  0  0  0  0  0
  156.8670   41.4977  146.9002 O   0  0  0  0  0  0  0  0  0  0  0  0
  159.0298   41.8750  148.3542 O   0  0  0  0  0  0  0  0  0  0  0  0
  159.0533   42.1133  145.8093 O   0  0  0  0  0  0  0  0  0  0  0  0
  160.4466   42.4197  145.8435 C   0  0  0  0  0  0  0  0  0  0  0  0
  161.0319   42.7204  144.4601 C   0  0  1  0  0  0  0  0  0  0  0  0
  161.1452   41.5029  143.7201 O   0  0  0  0  0  0  0  0  0  0  0  0
  160.2101   43.6824  143.6051 C   0  0  1  0  0  0  0  0  0  0  0  0
  160.6586   45.0317  143.7258 O   0  0  0  0  0  0  0  0  0  0  0  0
  160.4357   43.1429  142.2050 C   0  0  1  0  0  0  0  0  0  0  0  0
  161.6210   43.6998  141.6300 O   0  0  0  0  0  0  0  0  0  0  0  0
  160.6704   41.6570  142.3800 C   0  0  2  0  0  0  0  0  0  0  0  0
  159.3829   40.9320  142.2433 N   0  0  0  0  0  0  0  0  0  0  0  0
  158.8718   40.0621  143.1369 C   0  0  0  0  0  0  0  0  0  0  0  0
  157.6672   39.5700  142.7343 N   0  0  0  0  0  0  0  0  0  0  0  0
  157.3830   40.1386  141.5519 C   0  0  0  0  0  0  0  0  0  0  0  0
  156.2772   40.0590  140.5636 C   0  0  0  0  0  0  0  0  0  0  0  0
  155.2716   39.3383  140.7412 O   0  0  0  0  0  0  0  0  0  0  0  0
  156.3759   40.8131  139.4676 N   0  0  0  0  0  0  0  0  0  0  0  0
  157.4317   41.6077  139.2337 C   0  0  0  0  0  0  0  0  0  0  0  0
  157.4338   42.3120  138.0922 N   0  0  0  0  0  0  0  0  0  0  0  0
  158.4811   41.7276  140.0803 N   0  0  0  0  0  0  0  0  0  0  0  0
  158.5164   41.0307  141.2355 C   0  0  0  0  0  0  0  0  0  0  0  0
  1  3  2  6  0  0  0
  1 32  1  0  0  0  0
  1  2  1  0  0  0  0
  1  4  1  0  0  0  0
  4  5  1  0  0  0  0
  6  5  1  6  0  0  0
  7  6  1  0  0  0  0
  8  6  1  0  0  0  0
  8 10  1  0  0  0  0
  8  9  1  1  0  0  0
 10 11  1  1  0  0  0
 12 13  1  6  0  0  0
 12  7  1  0  0  0  0
 12 10  1  0  0  0  0
 14 13  1  0  0  0  0
 15 16  1  0  0  0  0
 15 14  2  0  0  0  0
 16 23  2  0  0  0  0
 17 16  1  0  0  0  0
 17 19  1  0  0  0  0
 18 17  2  0  0  0  0
 19 20  2  0  0  0  0
 20 22  1  0  0  0  0
 20 21  1  0  0  0  0
 23 13  1  0  0  0  0
 23 22  1  0  0  0  0
 24 25  2  6  0  0  0
 24  9  1  0  0  0  0
 24 26  1  0  0  0  0
 27 28  1  0  0  0  0
 27 24  1  0  0  0  0
 29 30  1  6  0  0  0
 29 28  1  0  0  0  0
 31 32  1  6  0  0  0
 31 29  1  0  0  0  0
 33 34  1  1  0  0  0
 33 35  1  0  0  0  0
 33 31  1  0  0  0  0
 35 36  1  1  0  0  0
 35 30  1  0  0  0  0
 36 37  1  0  0  0  0
 38 37  2  0  0  0  0
 39 38  1  0  0  0  0
 40 41  2  0  0  0  0
 40 39  1  0  0  0  0
 42 40  1  0  0  0  0
 43 42  2  0  0  0  0
 43 45  1  0  0  0  0
 44 43  1  0  0  0  0
 45 46  1  0  0  0  0
 46 39  2  0  0  0  0
 46 36  1  0  0  0  0
M  END
>  <CHROM.1>
22.62407380,-11.85919568,157.12189974,43.57707443,143.90294397,-0.36226691
-0.15996069,1.01560234

>  <Name>
lig.pdb

>  <RI>
0

>  <Rbt.Current_Directory>
/home/itssahil/PROJECTS/Mol_Feturizer/New_Systems/rnas/4yb0

>  <Rbt.Executable>
rbdock ($Id: //depot/dev/client3/rdock/2013.1/src/exe/rbdock.cxx#4 $)

>  <Rbt.Library>
libRbt.so (2013.1, Build901 2013/11/27)

>  <Rbt.Parameter_File>
/export/apps/rDock/src/rDock_2013.1_src/data/scripts/dock_solv.prm

>  <Rbt.Receptor>
prm/pocket_docking_2.prm

>  <SCORE>
-53.5824

>  <SCORE.INTER>
-53.4709

>  <SCORE.INTER.CONST>
1

>  <SCORE.INTER.POLAR>
0

>  <SCORE.INTER.ROT>
2

>  <SCORE.INTER.SOLV>
31.6175

>  <SCORE.INTER.VDW>
-51.1198

>  <SCORE.INTER.norm>
-1.16241

>  <SCORE.INTRA>
-0.111439

>  <SCORE.INTRA.DIHEDRAL>
-0.0204964

>  <SCORE.INTRA.DIHEDRAL.0>
4.74153

>  <SCORE.INTRA.POLAR>
0

>  <SCORE.INTRA.POLAR.0>
0

>  <SCORE.INTRA.REPUL>
0

>  <SCORE.INTRA.REPUL.0>
0

>  <SCORE.INTRA.SOLV>
0.00106793

>  <SCORE.INTRA.SOLV.lig_0>
-60.4375

>  <SCORE.INTRA.VDW>
-0.101724

>  <SCORE.INTRA.VDW.0>
-1.83689

>  <SCORE.INTRA.norm>
-0.00242258

>  <SCORE.RESTR>
0

>  <SCORE.RESTR.CAVITY>
0

>  <SCORE.RESTR.norm>
0

>  <SCORE.SYSTEM>
0

>  <SCORE.SYSTEM.CONST>
0

>  <SCORE.SYSTEM.DIHEDRAL>
0

>  <SCORE.SYSTEM.SOLV>
0

>  <SCORE.SYSTEM.norm>
0

>  <SCORE.heavy>
46

>  <SCORE.norm>
-1.16483

>  <RMSD>
0.479

$$$$
lig.pdb
 OpenBabel11021811523D
libRbt.so/2013.1/901 2013/11/27
 46 52  0  0  0  0  0  0  0  0999 V2000
  159.6335   46.2916  143.4327 P   0  0  2  0  0  0  0  0  0  0  0  0
  160.2630   47.6351  143.7303 O   0  0  0  0  0  0  0  0  0  0  0  0
  159.1510   46.0669  142.0228 O   0  0  0  0  0  0  0  0  0  0  0  0
  158.4179   45.9802  144.4378 O   0  0  0  0  0  0  0  0  0  0  0  0
  158.1647   46.7955  145.5746 C   0  0  0  0  0  0  0  0  0  0  0  0
  157.2417   46.0698  146.5396 C   0  0  1  0  0  0  0  0  0  0  0  0
  155.9401   46.6221  146.4023 O   0  0  0  0  0  0  0  0  0  0  0  0
  157.0947   44.5709  146.3105 C   0  0  1  0  0  0  0  0  0  0  0  0
  157.8537   43.8626  147.2793 O   0  0  0  0  0  0  0  0  0  0  0  0
  155.6294   44.3149  146.5829 C   0  0  1  0  0  0  0  0  0  0  0  0
  155.4448   44.0099  147.9667 O   0  0  0  0  0  0  0  0  0  0  0  0
  154.9358   45.6218  146.3290 C   0  0  2  0  0  0  0  0  0  0  0  0
  154.3723   45.6155  144.9582 N   0  0  0  0  0  0  0  0  0  0  0  0
  154.9870   46.0796  143.8563 C   0  0  0  0  0  0  0  0  0  0  0  0
  154.1901   45.9381  142.7699 N   0  0  0  0  0  0  0  0  0  0  0  0
  153.0370   45.3732  143.1698 C   0  0  0  0  0  0  0  0  0  0  0  0
  151.7717   44.9486  142.5258 C   0  0  0  0  0  0  0  0  0  0  0  0
  151.6050   45.1081  141.2926 O   0  0  0  0  0  0  0  0  0  0  0  0
  150.8249   44.3974  143.3045 N   0  0  0  0  0  0  0  0  0  0  0  0
  151.0082   44.2298  144.6278 C   0  0  0  0  0  0  0  0  0  0  0  0
  150.0229   43.6651  145.3611 N   0  0  0  0  0  0  0  0  0  0  0  0
  152.1365   44.5946  145.2779 N   0  0  0  0  0  0  0  0  0  0  0  0
  153.1669   45.1619  144.6149 C   0  0  0  0  0  0  0  0  0  0  0  0
  158.1569   42.2703  147.1849 P   0  0  2  0  0  0  0  0  0  0  0  0
  156.8663   41.5351  146.9168 O   0  0  0  0  0  0  0  0  0  0  0  0
  159.0100   41.9331  148.3934 O   0  0  0  0  0  0  0  0  0  0  0  0
  159.0587   42.1684  145.8486 O   0  0  0  0  0  0  0  0  0  0  0  0
  160.4489   42.4870  145.8973 C   0  0  0  0  0  0  0  0  0  0  0  0
  161.0463   42.7911  144.5199 C   0  0  1  0  0  0  0  0  0  0  0  0
  161.1782   41.5737  143.7827 O   0  0  0  0  0  0  0  0  0  0  0  0
  160.2254   43.7449  143.6548 C   0  0  1  0  0  0  0  0  0  0  0  0
  160.6607   45.0981  143.7785 O   0  0  0  0  0  0  0  0  0  0  0  0
  160.4706   43.2056  142.2579 C   0  0  1  0  0  0  0  0  0  0  0  0
  161.6571   43.7721  141.6949 O   0  0  0  0  0  0  0  0  0  0  0  0
  160.7164   41.7221  142.4374 C   0  0  2  0  0  0  0  0  0  0  0  0
  159.4368   40.9856  142.2878 N   0  0  0  0  0  0  0  0  0  0  0  0
  158.9283   40.1053  143.1727 C   0  0  0  0  0  0  0  0  0  0  0  0
  157.7312   39.6043  142.7593 N   0  0  0  0  0  0  0  0  0  0  0  0
  157.4490   40.1775  141.5786 C   0  0  0  0  0  0  0  0  0  0  0  0
  156.3504   40.0935  140.5828 C   0  0  0  0  0  0  0  0  0  0  0  0
  155.3507   39.3622  140.7493 O   0  0  0  0  0  0  0  0  0  0  0  0
  156.4489   40.8554  139.4921 N   0  0  0  0  0  0  0  0  0  0  0  0
  157.4986   41.6614  139.2700 C   0  0  0  0  0  0  0  0  0  0  0  0
  157.5012   42.3729  138.1328 N   0  0  0  0  0  0  0  0  0  0  0  0
  158.5413   41.7861  140.1241 N   0  0  0  0  0  0  0  0  0  0  0  0
  158.5758   41.0824  141.2751 C   0  0  0  0  0  0  0  0  0  0  0  0
  1  3  2  6  0  0  0
  1 32  1  0  0  0  0
  1  2  1  0  0  0  0
  1  4  1  0  0  0  0
  4  5  1  0  0  0  0
  6  5  1  6  0  0  0
  7  6  1  0  0  0  0
  8  6  1  0  0  0  0
  8 10  1  0  0  0  0
  8  9  1  1  0  0  0
 10 11  1  1  0  0  0
 12 13  1  6  0  0  0
 12  7  1  0  0  0  0
 12 10  1  0  0  0  0
 14 13  1  0  0  0  0
 15 16  1  0  0  0  0
 15 14  2  0  0  0  0
 16 23  2  0  0  0  0
 17 16  1  0  0  0  0
 17 19  1  0  0  0  0
 18 17  2  0  0  0  0
 19 20  2  0  0  0  0
 20 22  1  0  0  0  0
 20 21  1  0  0  0  0
 23 13  1  0  0  0  0
 23 22  1  0  0  0  0
 24 25  2  6  0  0  0
 24  9  1  0  0  0  0
 24 26  1  0  0  0  0
 27 28  1  0  0  0  0
 27 24  1  0  0  0  0
 29 30  1  6  0  0  0
 29 28  1  0  0  0  0
 31 32  1  6  0  0  0
 31 29  1  0  0  0  0
 33 34  1  1  0  0  0
 33 35  1  0  0  0  0
 33 31  1  0  0  0  0
 35 36  1  1  0  0  0
 35 30  1  0  0  0  0
 36 37  1  0  0  0  0
 38 37  2  0  0  0  0
 39 38  1  0  0  0  0
 40 41  2  0  0  0  0
 40 39  1  0  0  0  0
 42 40  1  0  0  0  0
 43 42  2  0  0  0  0
 43 45  1  0  0  0  0
 44 43  1  0  0  0  0
 45 46  1  0  0  0  0
 46 39  2  0  0  0  0
 46 36  1  0  0  0  0
M  END
>  <CHROM.1>
22.60751460,-12.35566914,157.13388444,43.61477763,143.92097565,-0.34396949
-0.15846768,1.01741287

>  <Name>
lig.pdb

>  <RI>
0

>  <Rbt.Current_Directory>
/home/itssahil/PROJECTS/Mol_Feturizer/New_Systems/rnas/4yb0

>  <Rbt.Executable>
rbdock ($Id: //depot/dev/client3/rdock/2013.1/src/exe/rbdock.cxx#4 $)

>  <Rbt.Library>
libRbt.so (2013.1, Build901 2013/11/27)

>  <Rbt.Parameter_File>
/export/apps/rDock/src/rDock_2013.1_src/data/scripts/dock_solv.prm

>  <Rbt.Receptor>
prm/pocket_docking_2.prm

>  <SCORE>
-53.5728

>  <SCORE.INTER>
-53.4639

>  <SCORE.INTER.CONST>
1

>  <SCORE.INTER.POLAR>
0

>  <SCORE.INTER.ROT>
2

>  <SCORE.INTER.SOLV>
31.0622

>  <SCORE.INTER.VDW>
-50.93

>  <SCORE.INTER.norm>
-1.16226

>  <SCORE.INTRA>
-0.108885

>  <SCORE.INTRA.DIHEDRAL>
-0.0217168

>  <SCORE.INTRA.DIHEDRAL.0>
4.74153

>  <SCORE.INTRA.POLAR>
0

>  <SCORE.INTRA.POLAR.0>
0

>  <SCORE.INTRA.REPUL>
0

>  <SCORE.INTRA.REPUL.0>
0

>  <SCORE.INTRA.SOLV>
-0.000259981

>  <SCORE.INTRA.SOLV.lig_0>
-60.4375

>  <SCORE.INTRA.VDW>
-0.0978963

>  <SCORE.INTRA.VDW.0>
-1.83689

>  <SCORE.INTRA.norm>
-0.00236706

>  <SCORE.RESTR>
0

>  <SCORE.RESTR.CAVITY>
0

>  <SCORE.RESTR.norm>
0

>  <SCORE.SYSTEM>
0

>  <SCORE.SYSTEM.CONST>
0

>  <SCORE.SYSTEM.DIHEDRAL>
0

>  <SCORE.SYSTEM.SOLV>
0

>  <SCORE.SYSTEM.norm>
0

>  <SCORE.heavy>
46

>  <SCORE.norm>
-1.16463

>  <RMSD>
0.481

$$$$
lig.pdb
 OpenBabel11021811523D
libRbt.so/2013.1/901 2013/11/27
 46 52  0  0  0  0  0  0  0  0999 V2000
  158.6104   42.1068  147.4630 P   0  0  2  0  0  0  0  0  0  0  0  0
  159.5209   41.3723  148.4228 O   0  0  0  0  0  0  0  0  0  0  0  0
  157.2113   41.5684  147.3099 O   0  0  0  0  0  0  0  0  0  0  0  0
  159.2706   42.2192  146.0013 O   0  0  0  0  0  0  0  0  0  0  0  0
  160.6250   41.8564  145.7664 C   0  0  0  0  0  0  0  0  0  0  0  0
  161.0910   42.4208  144.4345 C   0  0  1  0  0  0  0  0  0  0  0  0
  161.1037   41.3612  143.4885 O   0  0  0  0  0  0  0  0  0  0  0  0
  160.2132   43.5138  143.8381 C   0  0  1  0  0  0  0  0  0  0  0  0
  160.8299   44.7788  144.0279 O   0  0  0  0  0  0  0  0  0  0  0  0
  160.2223   43.2044  142.3578 C   0  0  1  0  0  0  0  0  0  0  0  0
  161.3093   43.8884  141.7313 O   0  0  0  0  0  0  0  0  0  0  0  0
  160.5139   41.7356  142.2529 C   0  0  2  0  0  0  0  0  0  0  0  0
  159.2392   40.9965  142.0929 N   0  0  0  0  0  0  0  0  0  0  0  0
  158.7172   40.1333  142.9817 C   0  0  0  0  0  0  0  0  0  0  0  0
  157.5510   39.6207  142.5210 N   0  0  0  0  0  0  0  0  0  0  0  0
  157.3086   40.1579  141.3121 C   0  0  0  0  0  0  0  0  0  0  0  0
  156.2477   40.0474  140.2833 C   0  0  0  0  0  0  0  0  0  0  0  0
  155.2691   39.2832  140.4634 O   0  0  0  0  0  0  0  0  0  0  0  0
  156.3762   40.7849  139.1670 N   0  0  0  0  0  0  0  0  0  0  0  0
  157.4293   41.6024  138.9779 C   0  0  0  0  0  0  0  0  0  0  0  0
  157.5039   42.3243  137.8375 N   0  0  0  0  0  0  0  0  0  0  0  0
  158.4309   41.7500  139.8745 N   0  0  0  0  0  0  0  0  0  0  0  0
  158.4267   41.0661  141.0386 C   0  0  0  0  0  0  0  0  0  0  0  0
  160.0689   46.1897  143.7705 P   0  0  2  0  0  0  0  0  0  0  0  0
  159.3980   46.1515  142.4190 O   0  0  0  0  0  0  0  0  0  0  0  0
  161.0710   47.2759  144.1133 O   0  0  0  0  0  0  0  0  0  0  0  0
  158.9044   46.1640  144.8898 O   0  0  0  0  0  0  0  0  0  0  0  0
  159.2037   46.5082  146.2419 C   0  0  0  0  0  0  0  0  0  0  0  0
  158.1563   46.0024  147.2388 C   0  0  1  0  0  0  0  0  0  0  0  0
  156.9718   46.7936  147.1219 O   0  0  0  0  0  0  0  0  0  0  0  0
  157.7354   44.5464  147.0521 C   0  0  1  0  0  0  0  0  0  0  0  0
  158.4786   43.6573  147.8848 O   0  0  0  0  0  0  0  0  0  0  0  0
  156.2696   44.5816  147.4424 C   0  0  1  0  0  0  0  0  0  0  0  0
  156.1146   44.4088  148.8538 O   0  0  0  0  0  0  0  0  0  0  0  0
  155.7964   45.9791  147.1012 C   0  0  2  0  0  0  0  0  0  0  0  0
  155.2320   45.9904  145.7288 N   0  0  0  0  0  0  0  0  0  0  0  0
  155.7905   46.5811  144.6538 C   0  0  0  0  0  0  0  0  0  0  0  0
  155.0392   46.4063  143.5312 N   0  0  0  0  0  0  0  0  0  0  0  0
  153.9676   45.6776  143.8819 C   0  0  0  0  0  0  0  0  0  0  0  0
  152.7656   45.1413  143.1940 C   0  0  0  0  0  0  0  0  0  0  0  0
  152.5636   45.3082  141.9719 O   0  0  0  0  0  0  0  0  0  0  0  0
  151.8993   44.4394  143.9264 N   0  0  0  0  0  0  0  0  0  0  0  0
  152.0739   44.2272  145.2399 C   0  0  0  0  0  0  0  0  0  0  0  0
  151.1326   43.5192  145.8817 N   0  0  0  0  0  0  0  0  0  0  0  0
  153.1369   44.6898  145.9387 N   0  0  0  0  0  0  0  0  0  0  0  0
  154.1010   45.4102  145.3280 C   0  0  0  0  0  0  0  0  0  0  0  0
  1  3  2  6  0  0  0
  1 32  1  0  0  0  0
  1  2  1  0  0  0  0
  1  4  1  0  0  0  0
  4  5  1  0  0  0  0
  6  5  1  1  0  0  0
  7  6  1  0  0  0  0
  8  6  1  0  0  0  0
  8 10  1  0  0  0  0
  8  9  1  6  0  0  0
 10 11  1  6  0  0  0
 12 13  1  1  0  0  0
 12  7  1  0  0  0  0
 12 10  1  0  0  0  0
 14 13  1  0  0  0  0
 15 16  1  0  0  0  0
 15 14  2  0  0  0  0
 16 23  2  0  0  0  0
 17 16  1  0  0  0  0
 17 19  1  0  0  0  0
 18 17  2  0  0  0  0
 19 20  2  0  0  0  0
 20 22  1  0  0  0  0
 20 21  1  0  0  0  0
 23 13  1  0  0  0  0
 23 22  1  0  0  0  0
 24 25  2  6  0  0  0
 24  9  1  0  0  0  0
 24 26  1  0  0  0  0
 27 28  1  0  0  0  0
 27 24  1  0  0  0  0
 29 30  1  6  0  0  0
 29 28  1  0  0  0  0
 31 32  1  1  0  0  0
 31 29  1  0  0  0  0
 33 34  1  1  0  0  0
 33 35  1  0  0  0  0
 33 31  1  0  0  0  0
 35 36  1  6  0  0  0
 35 30  1  0  0  0  0
 36 37  1  0  0  0  0
 38 37  2  0  0  0  0
 39 38  1  0  0  0  0
 40 41  2  0  0  0  0
 40 39  1  0  0  0  0
 42 40  1  0  0  0  0
 43 42  2  0  0  0  0
 43 45  1  0  0  0  0
 44 43  1  0  0  0  0
 45 46  1  0  0  0  0
 46 39  2  0  0  0  0
 46 36  1  0  0  0  0
M  END
>  <CHROM.1>
1.08837699,4.87504599,157.54234777,43.60629873,144.20455984,-2.03351987,0.15906483
-2.10885594

>  <Name>
lig.pdb

>  <RI>
0

>  <Rbt.Current_Directory>
/home/itssahil/PROJECTS/Mol_Feturizer/New_Systems/rnas/4yb0

>  <Rbt.Executable>
rbdock ($Id: //depot/dev/client3/rdock/2013.1/src/exe/rbdock.cxx#4 $)

>  <Rbt.Library>
libRbt.so (2013.1, Build901 2013/11/27)

>  <Rbt.Parameter_File>
/export/apps/rDock/src/rDock_2013.1_src/data/scripts/dock_solv.prm

>  <Rbt.Receptor>
prm/pocket_docking_3.prm

>  <SCORE>
-50.2112

>  <SCORE.INTER>
-50.2753

>  <SCORE.INTER.CONST>
1

>  <SCORE.INTER.POLAR>
0

>  <SCORE.INTER.ROT>
2

>  <SCORE.INTER.SOLV>
28.7774

>  <SCORE.INTER.VDW>
-48.0426

>  <SCORE.INTER.norm>
-1.09294

>  <SCORE.INTRA>
0.0640504

>  <SCORE.INTRA.DIHEDRAL>
0.0686502

>  <SCORE.INTRA.DIHEDRAL.0>
4.74153

>  <SCORE.INTRA.POLAR>
0

>  <SCORE.INTRA.POLAR.0>
0

>  <SCORE.INTRA.REPUL>
0

>  <SCORE.INTRA.REPUL.0>
0

>  <SCORE.INTRA.SOLV>
0.0937002

>  <SCORE.INTRA.SOLV.lig_0>
-60.4375

>  <SCORE.INTRA.VDW>
-0.0171248

>  <SCORE.INTRA.VDW.0>
-1.83689

>  <SCORE.INTRA.norm>
0.0013924

>  <SCORE.RESTR>
0

>  <SCORE.RESTR.CAVITY>
0

>  <SCORE.RESTR.norm>
0

>  <SCORE.SYSTEM>
0

>  <SCORE.SYSTEM.CONST>
0

>  <SCORE.SYSTEM.DIHEDRAL>
0

>  <SCORE.SYSTEM.SOLV>
0

>  <SCORE.SYSTEM.norm>
0

>  <SCORE.heavy>
46

>  <SCORE.norm>
-1.09155

>  <RMSD>
0.482

$$$$
lig.pdb
 OpenBabel11021811523D
libRbt.so/2013.1/901 2013/11/27
 46 52  0  0  0  0  0  0  0  0999 V2000
  159.6267   46.2969  143.4714 P   0  0  2  0  0  0  0  0  0  0  0  0
  160.2508   47.6424  143.7707 O   0  0  0  0  0  0  0  0  0  0  0  0
  159.1484   46.0707  142.0603 O   0  0  0  0  0  0  0  0  0  0  0  0
  158.4097   45.9812  144.4735 O   0  0  0  0  0  0  0  0  0  0  0  0
  158.1508   46.7954  145.6098 C   0  0  0  0  0  0  0  0  0  0  0  0
  157.2280   46.0664  146.5724 C   0  0  1  0  0  0  0  0  0  0  0  0
  155.9249   46.6143  146.4319 O   0  0  0  0  0  0  0  0  0  0  0  0
  157.0867   44.5671  146.3427 C   0  0  1  0  0  0  0  0  0  0  0  0
  157.8457   43.8612  147.3133 O   0  0  0  0  0  0  0  0  0  0  0  0
  155.6216   44.3060  146.6115 C   0  0  1  0  0  0  0  0  0  0  0  0
  155.4346   44.0002  147.9948 O   0  0  0  0  0  0  0  0  0  0  0  0
  154.9242   45.6105  146.3560 C   0  0  2  0  0  0  0  0  0  0  0  0
  154.3640   45.6025  144.9838 N   0  0  0  0  0  0  0  0  0  0  0  0
  154.9878   46.0505  143.8804 C   0  0  0  0  0  0  0  0  0  0  0  0
  154.1919   45.9125  142.7929 N   0  0  0  0  0  0  0  0  0  0  0  0
  153.0301   45.3661  143.1937 C   0  0  0  0  0  0  0  0  0  0  0  0
  151.7607   44.9544  142.5493 C   0  0  0  0  0  0  0  0  0  0  0  0
  151.5993   45.1077  141.3146 O   0  0  0  0  0  0  0  0  0  0  0  0
  150.8046   44.4216  143.3292 N   0  0  0  0  0  0  0  0  0  0  0  0
  150.9822   44.2606  144.6542 C   0  0  0  0  0  0  0  0  0  0  0  0
  149.9874   43.7145  145.3887 N   0  0  0  0  0  0  0  0  0  0  0  0
  152.1138   44.6145  145.3047 N   0  0  0  0  0  0  0  0  0  0  0  0
  153.1535   45.1630  144.6405 C   0  0  0  0  0  0  0  0  0  0  0  0
  158.1546   42.2700  147.2195 P   0  0  2  0  0  0  0  0  0  0  0  0
  156.8672   41.5304  146.9481 O   0  0  0  0  0  0  0  0  0  0  0  0
  159.0059   41.9355  148.4300 O   0  0  0  0  0  0  0  0  0  0  0  0
  159.0600   42.1714  145.8854 O   0  0  0  0  0  0  0  0  0  0  0  0
  160.4490   42.4947  145.9375 C   0  0  0  0  0  0  0  0  0  0  0  0
  161.0488   42.8010  144.5616 C   0  0  1  0  0  0  0  0  0  0  0  0
  161.1866   41.5842  143.8247 O   0  0  0  0  0  0  0  0  0  0  0  0
  160.2267   43.7521  143.6947 C   0  0  1  0  0  0  0  0  0  0  0  0
  160.6571   45.1068  143.8196 O   0  0  0  0  0  0  0  0  0  0  0  0
  160.4772   43.2139  142.2983 C   0  0  1  0  0  0  0  0  0  0  0  0
  161.6632   43.7845  141.7383 O   0  0  0  0  0  0  0  0  0  0  0  0
  160.7277   41.7312  142.4782 C   0  0  2  0  0  0  0  0  0  0  0  0
  159.4510   40.9904  142.3254 N   0  0  0  0  0  0  0  0  0  0  0  0
  158.9358   40.1199  143.2161 C   0  0  0  0  0  0  0  0  0  0  0  0
  157.7436   39.6114  142.7973 N   0  0  0  0  0  0  0  0  0  0  0  0
  157.4717   40.1697  141.6071 C   0  0  0  0  0  0  0  0  0  0  0  0
  156.3828   40.0714  140.6019 C   0  0  0  0  0  0  0  0  0  0  0  0
  155.3829   39.3401  140.7678 O   0  0  0  0  0  0  0  0  0  0  0  0
  156.4903   40.8201  139.5030 N   0  0  0  0  0  0  0  0  0  0  0  0
  157.5405   41.6255  139.2812 C   0  0  0  0  0  0  0  0  0  0  0  0
  157.5527   42.3232  138.1356 N   0  0  0  0  0  0  0  0  0  0  0  0
  158.5747   41.7627  140.1436 N   0  0  0  0  0  0  0  0  0  0  0  0
  158.5996   41.0731  141.3034 C   0  0  0  0  0  0  0  0  0  0  0  0
  1  3  2  6  0  0  0
  1 32  1  0  0  0  0
  1  2  1  0  0  0  0
  1  4  1  0  0  0  0
  4  5  1  0  0  0  0
  6  5  1  6  0  0  0
  7  6  1  0  0  0  0
  8  6  1  0  0  0  0
  8 10  1  0  0  0  0
  8  9  1  1  0  0  0
 10 11  1  1  0  0  0
 12 13  1  6  0  0  0
 12  7  1  0  0  0  0
 12 10  1  0  0  0  0
 14 13  1  0  0  0  0
 15 16  1  0  0  0  0
 15 14  2  0  0  0  0
 16 23  2  0  0  0  0
 17 16  1  0  0  0  0
 17 19  1  0  0  0  0
 18 17  2  0  0  0  0
 19 20  2  0  0  0  0
 20 22  1  0  0  0  0
 20 21  1  0  0  0  0
 23 13  1  0  0  0  0
 23 22  1  0  0  0  0
 24 25  2  6  0  0  0
 24  9  1  0  0  0  0
 24 26  1  0  0  0  0
 27 28  1  0  0  0  0
 27 24  1  0  0  0  0
 29 30  1  6  0  0  0
 29 28  1  0  0  0  0
 31 32  1  6  0  0  0
 31 29  1  0  0  0  0
 33 34  1  1  0  0  0
 33 35  1  0  0  0  0
 33 31  1  0  0  0  0
 35 36  1  1  0  0  0
 35 30  1  0  0  0  0
 36 37  1  0  0  0  0
 38 37  2  0  0  0  0
 39 38  1  0  0  0  0
 40 41  2  0  0  0  0
 40 39  1  0  0  0  0
 42 40  1  0  0  0  0
 43 42  2  0  0  0  0
 43 45  1  0  0  0  0
 44 43  1  0  0  0  0
 45 46  1  0  0  0  0
 46 39  2  0  0  0  0
 46 36  1  0  0  0  0
M  END
>  <CHROM.1>
23.66551107,-11.53843802,157.13500661,43.61345093,143.95196447,-0.34983048
-0.16019778,1.01788875

>  <Name>
lig.pdb

>  <RI>
0

>  <Rbt.Current_Directory>
/home/itssahil/PROJECTS/Mol_Feturizer/New_Systems/rnas/4yb0

>  <Rbt.Executable>
rbdock ($Id: //depot/dev/client3/rdock/2013.1/src/exe/rbdock.cxx#4 $)

>  <Rbt.Library>
libRbt.so (2013.1, Build901 2013/11/27)

>  <Rbt.Parameter_File>
/export/apps/rDock/src/rDock_2013.1_src/data/scripts/dock_solv.prm

>  <Rbt.Receptor>
prm/pocket_docking_3.prm

>  <SCORE>
-53.6331

>  <SCORE.INTER>
-53.4939

>  <SCORE.INTER.CONST>
1

>  <SCORE.INTER.POLAR>
0

>  <SCORE.INTER.ROT>
2

>  <SCORE.INTER.SOLV>
30.9934

>  <SCORE.INTER.VDW>
-50.927

>  <SCORE.INTER.norm>
-1.16291

>  <SCORE.INTRA>
-0.139225

>  <SCORE.INTRA.DIHEDRAL>
-0.020517

>  <SCORE.INTRA.DIHEDRAL.0>
4.74153

>  <SCORE.INTRA.POLAR>
0

>  <SCORE.INTRA.POLAR.0>
0

>  <SCORE.INTRA.REPUL>
0

>  <SCORE.INTRA.REPUL.0>
0

>  <SCORE.INTRA.SOLV>
0.00363135

>  <SCORE.INTRA.SOLV.lig_0>
-60.4375

>  <SCORE.INTRA.VDW>
-0.130782

>  <SCORE.INTRA.VDW.0>
-1.83689

>  <SCORE.INTRA.norm>
-0.00302662

>  <SCORE.RESTR>
0

>  <SCORE.RESTR.CAVITY>
0

>  <SCORE.RESTR.norm>
0

>  <SCORE.SYSTEM>
0

>  <SCORE.SYSTEM.CONST>
0

>  <SCORE.SYSTEM.DIHEDRAL>
0

>  <SCORE.SYSTEM.SOLV>
0

>  <SCORE.SYSTEM.norm>
0

>  <SCORE.heavy>
46

>  <SCORE.norm>
-1.16594

>  <RMSD>
0.482

$$$$
lig.pdb
 OpenBabel11021811523D
libRbt.so/2013.1/901 2013/11/27
 46 52  0  0  0  0  0  0  0  0999 V2000
  158.1233   42.2553  147.5645 P   0  0  2  0  0  0  0  0  0  0  0  0
  158.9917   41.6149  148.6253 O   0  0  0  0  0  0  0  0  0  0  0  0
  156.7757   41.6261  147.3214 O   0  0  0  0  0  0  0  0  0  0  0  0
  158.8956   42.3534  146.1577 O   0  0  0  0  0  0  0  0  0  0  0  0
  160.2838   42.0664  146.0492 C   0  0  0  0  0  0  0  0  0  0  0  0
  160.8257   42.6081  144.7367 C   0  0  1  0  0  0  0  0  0  0  0  0
  160.9793   41.5166  143.8407 O   0  0  0  0  0  0  0  0  0  0  0  0
  159.9385   43.6217  144.0252 C   0  0  1  0  0  0  0  0  0  0  0  0
  160.4621   44.9286  144.2106 O   0  0  0  0  0  0  0  0  0  0  0  0
  160.0892   43.2582  142.5650 C   0  0  1  0  0  0  0  0  0  0  0  0
  161.1830   43.9840  142.0003 O   0  0  0  0  0  0  0  0  0  0  0  0
  160.4739   41.8073  142.5465 C   0  0  2  0  0  0  0  0  0  0  0  0
  159.2624   40.9854  142.3152 N   0  0  0  0  0  0  0  0  0  0  0  0
  158.8791   39.9297  143.0541 C   0  0  0  0  0  0  0  0  0  0  0  0
  157.7354   39.3941  142.5639 N   0  0  0  0  0  0  0  0  0  0  0  0
  157.3672   40.1117  141.4877 C   0  0  0  0  0  0  0  0  0  0  0  0
  156.2552   40.0815  140.5087 C   0  0  0  0  0  0  0  0  0  0  0  0
  155.3625   39.2039  140.5922 O   0  0  0  0  0  0  0  0  0  0  0  0
  156.2438   41.0155  139.5423 N   0  0  0  0  0  0  0  0  0  0  0  0
  157.2051   41.9544  139.4561 C   0  0  0  0  0  0  0  0  0  0  0  0
  157.1400   42.8722  138.4657 N   0  0  0  0  0  0  0  0  0  0  0  0
  158.2462   42.0386  140.3150 N   0  0  0  0  0  0  0  0  0  0  0  0
  158.3795   41.1609  141.3322 C   0  0  0  0  0  0  0  0  0  0  0  0
  159.6440   46.2791  143.8325 P   0  0  2  0  0  0  0  0  0  0  0  0
  159.0918   46.1489  142.4339 O   0  0  0  0  0  0  0  0  0  0  0  0
  160.5489   47.4373  144.2091 O   0  0  0  0  0  0  0  0  0  0  0  0
  158.3936   46.2236  144.8537 O   0  0  0  0  0  0  0  0  0  0  0  0
  158.5583   46.6360  146.2099 C   0  0  0  0  0  0  0  0  0  0  0  0
  157.4625   46.1042  147.1390 C   0  0  1  0  0  0  0  0  0  0  0  0
  156.2477   46.8158  146.8928 O   0  0  0  0  0  0  0  0  0  0  0  0
  157.1446   44.6190  146.9808 C   0  0  1  0  0  0  0  0  0  0  0  0
  157.8663   43.8094  147.9080 O   0  0  0  0  0  0  0  0  0  0  0  0
  155.6517   44.5783  147.2489 C   0  0  1  0  0  0  0  0  0  0  0  0
  155.3897   44.4493  148.6491 O   0  0  0  0  0  0  0  0  0  0  0  0
  155.1279   45.9302  146.8114 C   0  0  2  0  0  0  0  0  0  0  0  0
  154.6804   45.8550  145.3985 N   0  0  0  0  0  0  0  0  0  0  0  0
  155.4162   46.1949  144.3216 C   0  0  0  0  0  0  0  0  0  0  0  0
  154.7330   46.0029  143.1591 N   0  0  0  0  0  0  0  0  0  0  0  0
  153.5241   45.5193  143.4860 C   0  0  0  0  0  0  0  0  0  0  0  0
  152.3007   45.1082  142.7512 C   0  0  0  0  0  0  0  0  0  0  0  0
  152.2254   45.1435  141.5041 O   0  0  0  0  0  0  0  0  0  0  0  0
  151.2689   44.6665  143.4723 N   0  0  0  0  0  0  0  0  0  0  0  0
  151.3023   44.6035  144.8124 C   0  0  0  0  0  0  0  0  0  0  0  0
  150.2028   44.1566  145.4373 N   0  0  0  0  0  0  0  0  0  0  0  0
  152.3753   44.9677  145.5529 N   0  0  0  0  0  0  0  0  0  0  0  0
  153.4970   45.4270  144.9595 C   0  0  0  0  0  0  0  0  0  0  0  0
  1  3  2  6  0  0  0
  1 32  1  0  0  0  0
  1  2  1  0  0  0  0
  1  4  1  0  0  0  0
  4  5  1  0  0  0  0
  6  5  1  1  0  0  0
  7  6  1  0  0  0  0
  8  6  1  0  0  0  0
  8 10  1  0  0  0  0
  8  9  1  6  0  0  0
 10 11  1  1  0  0  0
 12 13  1  1  0  0  0
 12  7  1  0  0  0  0
 12 10  1  0  0  0  0
 14 13  1  0  0  0  0
 15 16  1  0  0  0  0
 15 14  2  0  0  0  0
 16 23  2  0  0  0  0
 17 16  1  0  0  0  0
 17 19  1  0  0  0  0
 18 17  2  0  0  0  0
 19 20  2  0  0  0  0
 20 22  1  0  0  0  0
 20 21  1  0  0  0  0
 23 13  1  0  0  0  0
 23 22  1  0  0  0  0
 24 25  2  6  0  0  0
 24  9  1  0  0  0  0
 24 26  1  0  0  0  0
 27 28  1  0  0  0  0
 27 24  1  0  0  0  0
 29 30  1  6  0  0  0
 29 28  1  0  0  0  0
 31 32  1  1  0  0  0
 31 29  1  0  0  0  0
 33 34  1  1  0  0  0
 33 35  1  0  0  0  0
 33 31  1  0  0  0  0
 35 36  1  6  0  0  0
 35 30  1  0  0  0  0
 36 37  1  0  0  0  0
 38 37  2  0  0  0  0
 39 38  1  0  0  0  0
 40 41  2  0  0  0  0
 40 39  1  0  0  0  0
 42 40  1  0  0  0  0
 43 42  2  0  0  0  0
 43 45  1  0  0  0  0
 44 43  1  0  0  0  0
 45 46  1  0  0  0  0
 46 39  2  0  0  0  0
 46 36  1  0  0  0  0
M  END
>  <CHROM.1>
-14.11121495,19.30110038,157.16264016,43.68803461,144.21650424,-0.63449524
-0.22145417,1.03599577

>  <Name>
lig.pdb

>  <RI>
0

>  <Rbt.Current_Directory>
/home/itssahil/PROJECTS/Mol_Feturizer/New_Systems/rnas/4yb0

>  <Rbt.Executable>
rbdock ($Id: //depot/dev/client3/rdock/2013.1/src/exe/rbdock.cxx#4 $)

>  <Rbt.Library>
libRbt.so (2013.1, Build901 2013/11/27)

>  <Rbt.Parameter_File>
/export/apps/rDock/src/rDock_2013.1_src/data/scripts/dock_solv.prm

>  <Rbt.Receptor>
prm/pocket_docking_3.prm

>  <SCORE>
-49.1139

>  <SCORE.INTER>
-49.2861

>  <SCORE.INTER.CONST>
1

>  <SCORE.INTER.POLAR>
0

>  <SCORE.INTER.ROT>
2

>  <SCORE.INTER.SOLV>
31.0365

>  <SCORE.INTER.VDW>
-48.1362

>  <SCORE.INTER.norm>
-1.07144

>  <SCORE.INTRA>
0.172195

>  <SCORE.INTRA.DIHEDRAL>
0.138731

>  <SCORE.INTRA.DIHEDRAL.0>
4.74153

>  <SCORE.INTRA.POLAR>
0

>  <SCORE.INTRA.POLAR.0>
0

>  <SCORE.INTRA.REPUL>
0

>  <SCORE.INTRA.REPUL.0>
0

>  <SCORE.INTRA.SOLV>
0.190963

>  <SCORE.INTRA.SOLV.lig_0>
-60.4375

>  <SCORE.INTRA.VDW>
0.00734781

>  <SCORE.INTRA.VDW.0>
-1.83689

>  <SCORE.INTRA.norm>
0.00374336

>  <SCORE.RESTR>
0

>  <SCORE.RESTR.CAVITY>
0

>  <SCORE.RESTR.norm>
0

>  <SCORE.SYSTEM>
0

>  <SCORE.SYSTEM.CONST>
0

>  <SCORE.SYSTEM.DIHEDRAL>
0

>  <SCORE.SYSTEM.SOLV>
0

>  <SCORE.SYSTEM.norm>
0

>  <SCORE.heavy>
46

>  <SCORE.norm>
-1.06769

>  <RMSD>
0.482

$$$$
lig.pdb
 OpenBabel11021811523D
libRbt.so/2013.1/901 2013/11/27
 46 52  0  0  0  0  0  0  0  0999 V2000
  158.6227   42.1195  147.5148 P   0  0  2  0  0  0  0  0  0  0  0  0
  159.5228   41.4050  148.4991 O   0  0  0  0  0  0  0  0  0  0  0  0
  157.2239   41.5803  147.3609 O   0  0  0  0  0  0  0  0  0  0  0  0
  159.2965   42.1979  146.0571 O   0  0  0  0  0  0  0  0  0  0  0  0
  160.6523   41.8275  145.8430 C   0  0  0  0  0  0  0  0  0  0  0  0
  161.1316   42.3611  144.5031 C   0  0  1  0  0  0  0  0  0  0  0  0
  161.1509   41.2805  143.5811 O   0  0  0  0  0  0  0  0  0  0  0  0
  160.2616   43.4420  143.8743 C   0  0  1  0  0  0  0  0  0  0  0  0
  160.8791   44.7098  144.0415 O   0  0  0  0  0  0  0  0  0  0  0  0
  160.2836   43.0995  142.4015 C   0  0  1  0  0  0  0  0  0  0  0  0
  161.3778   43.7674  141.7699 O   0  0  0  0  0  0  0  0  0  0  0  0
  160.5732   41.6282  142.3321 C   0  0  2  0  0  0  0  0  0  0  0  0
  159.2985   40.8880  142.1770 N   0  0  0  0  0  0  0  0  0  0  0  0
  158.7843   40.0189  143.0644 C   0  0  0  0  0  0  0  0  0  0  0  0
  157.6155   39.5072  142.6091 N   0  0  0  0  0  0  0  0  0  0  0  0
  157.3636   40.0511  141.4051 C   0  0  0  0  0  0  0  0  0  0  0  0
  156.2956   39.9449  140.3833 C   0  0  0  0  0  0  0  0  0  0  0  0
  155.3195   39.1782  140.5659 O   0  0  0  0  0  0  0  0  0  0  0  0
  156.4149   40.6891  139.2705 N   0  0  0  0  0  0  0  0  0  0  0  0
  157.4653   41.5093  139.0786 C   0  0  0  0  0  0  0  0  0  0  0  0
  157.5306   42.2380  137.9419 N   0  0  0  0  0  0  0  0  0  0  0  0
  158.4731   41.6533  139.9688 N   0  0  0  0  0  0  0  0  0  0  0  0
  158.4783   40.9626  141.1289 C   0  0  0  0  0  0  0  0  0  0  0  0
  160.1233   46.1160  143.7455 P   0  0  2  0  0  0  0  0  0  0  0  0
  159.4648   46.0488  142.3890 O   0  0  0  0  0  0  0  0  0  0  0  0
  161.1246   47.2078  144.0731 O   0  0  0  0  0  0  0  0  0  0  0  0
  158.9486   46.1175  144.8543 O   0  0  0  0  0  0  0  0  0  0  0  0
  159.2362   46.4913  146.2011 C   0  0  0  0  0  0  0  0  0  0  0  0
  158.1786   46.0099  147.1994 C   0  0  1  0  0  0  0  0  0  0  0  0
  156.9968   46.8005  147.0538 O   0  0  0  0  0  0  0  0  0  0  0  0
  157.7565   44.5509  147.0414 C   0  0  1  0  0  0  0  0  0  0  0  0
  158.4902   43.6793  147.9006 O   0  0  0  0  0  0  0  0  0  0  0  0
  156.2873   44.5975  147.4173 C   0  0  1  0  0  0  0  0  0  0  0  0
  156.1189   44.4567  148.8307 O   0  0  0  0  0  0  0  0  0  0  0  0
  155.8201   45.9879  147.0405 C   0  0  2  0  0  0  0  0  0  0  0  0
  155.2683   45.9695  145.6631 N   0  0  0  0  0  0  0  0  0  0  0  0
  155.8813   46.4520  144.5640 C   0  0  0  0  0  0  0  0  0  0  0  0
  155.1262   46.2776  143.4439 N   0  0  0  0  0  0  0  0  0  0  0  0
  153.9957   45.6597  143.8214 C   0  0  0  0  0  0  0  0  0  0  0  0
  152.7584   45.1865  143.1498 C   0  0  0  0  0  0  0  0  0  0  0  0
  152.5797   45.3016  141.9181 O   0  0  0  0  0  0  0  0  0  0  0  0
  151.8320   44.5995  143.9092 N   0  0  0  0  0  0  0  0  0  0  0  0
  151.9792   44.4466  145.2343 C   0  0  0  0  0  0  0  0  0  0  0  0
  150.9781   43.8547  145.9027 N   0  0  0  0  0  0  0  0  0  0  0  0
  153.0717   44.8585  145.9191 N   0  0  0  0  0  0  0  0  0  0  0  0
  154.0962   45.4626  145.2814 C   0  0  0  0  0  0  0  0  0  0  0  0
  1  3  2  6  0  0  0
  1 32  1  0  0  0  0
  1  2  1  0  0  0  0
  1  4  1  0  0  0  0
  4  5  1  0  0  0  0
  6  5  1  1  0  0  0
  7  6  1  0  0  0  0
  8  6  1  0  0  0  0
  8 10  1  0  0  0  0
  8  9  1  6  0  0  0
 10 11  1  6  0  0  0
 12 13  1  1  0  0  0
 12  7  1  0  0  0  0
 12 10  1  0  0  0  0
 14 13  1  0  0  0  0
 15 16  1  0  0  0  0
 15 14  2  0  0  0  0
 16 23  2  0  0  0  0
 17 16  1  0  0  0  0
 17 19  1  0  0  0  0
 18 17  2  0  0  0  0
 19 20  2  0  0  0  0
 20 22  1  0  0  0  0
 20 21  1  0  0  0  0
 23 13  1  0  0  0  0
 23 22  1  0  0  0  0
 24 25  2  6  0  0  0
 24  9  1  0  0  0  0
 24 26  1  0  0  0  0
 27 28  1  0  0  0  0
 27 24  1  0  0  0  0
 29 30  1  6  0  0  0
 29 28  1  0  0  0  0
 31 32  1  1  0  0  0
 31 29  1  0  0  0  0
 33 34  1  1  0  0  0
 33 35  1  0  0  0  0
 33 31  1  0  0  0  0
 35 36  1  6  0  0  0
 35 30  1  0  0  0  0
 36 37  1  0  0  0  0
 38 37  2  0  0  0  0
 39 38  1  0  0  0  0
 40 41  2  0  0  0  0
 40 39  1  0  0  0  0
 42 40  1  0  0  0  0
 43 42  2  0  0  0  0
 43 45  1  0  0  0  0
 44 43  1  0  0  0  0
 45 46  1  0  0  0  0
 46 39  2  0  0  0  0
 46 36  1  0  0  0  0
M  END
>  <CHROM.1>
-0.79214103,9.84572291,157.56986717,43.57870060,144.22304225,-2.12507495
0.18652860,-2.12434072

>  <Name>
lig.pdb

>  <RI>
0

>  <Rbt.Current_Directory>
/home/itssahil/PROJECTS/Mol_Feturizer/New_Systems/rnas/4yb0

>  <Rbt.Executable>
rbdock ($Id: //depot/dev/client3/rdock/2013.1/src/exe/rbdock.cxx#4 $)

>  <Rbt.Library>
libRbt.so (2013.1, Build901 2013/11/27)

>  <Rbt.Parameter_File>
/export/apps/rDock/src/rDock_2013.1_src/data/scripts/dock_solv.prm

>  <Rbt.Receptor>
prm/pocket_docking_5.prm

>  <SCORE>
-50.5985

>  <SCORE.INTER>
-50.6271

>  <SCORE.INTER.CONST>
1

>  <SCORE.INTER.POLAR>
0

>  <SCORE.INTER.ROT>
2

>  <SCORE.INTER.SOLV>
29.0478

>  <SCORE.INTER.VDW>
-48.3673

>  <SCORE.INTER.norm>
-1.10059

>  <SCORE.INTRA>
0.0286349

>  <SCORE.INTRA.DIHEDRAL>
0.0877578

>  <SCORE.INTRA.DIHEDRAL.0>
4.74153

>  <SCORE.INTRA.POLAR>
0

>  <SCORE.INTRA.POLAR.0>
0

>  <SCORE.INTRA.REPUL>
0

>  <SCORE.INTRA.REPUL.0>
0

>  <SCORE.INTRA.SOLV>
0.110958

>  <SCORE.INTRA.SOLV.lig_0>
-60.4375

>  <SCORE.INTRA.VDW>
-0.070723

>  <SCORE.INTRA.VDW.0>
-1.83689

>  <SCORE.INTRA.norm>
0.000622497

>  <SCORE.RESTR>
0

>  <SCORE.RESTR.CAVITY>
0

>  <SCORE.RESTR.norm>
0

>  <SCORE.SYSTEM>
0

>  <SCORE.SYSTEM.CONST>
0

>  <SCORE.SYSTEM.DIHEDRAL>
0

>  <SCORE.SYSTEM.SOLV>
0

>  <SCORE.SYSTEM.norm>
0

>  <SCORE.heavy>
46

>  <SCORE.norm>
-1.09997

>  <RMSD>
0.482

$$$$
lig.pdb
 OpenBabel11021811523D
libRbt.so/2013.1/901 2013/11/27
 46 52  0  0  0  0  0  0  0  0999 V2000
  158.6173   42.1119  147.5210 P   0  0  2  0  0  0  0  0  0  0  0  0
  159.5167   41.3964  148.5052 O   0  0  0  0  0  0  0  0  0  0  0  0
  157.2186   41.5728  147.3656 O   0  0  0  0  0  0  0  0  0  0  0  0
  159.2921   42.1916  146.0638 O   0  0  0  0  0  0  0  0  0  0  0  0
  160.6480   41.8214  145.8502 C   0  0  0  0  0  0  0  0  0  0  0  0
  161.1283   42.3563  144.5112 C   0  0  1  0  0  0  0  0  0  0  0  0
  161.1482   41.2766  143.5882 O   0  0  0  0  0  0  0  0  0  0  0  0
  160.2587   43.4378  143.8828 C   0  0  1  0  0  0  0  0  0  0  0  0
  160.8761   44.7054  144.0516 O   0  0  0  0  0  0  0  0  0  0  0  0
  160.2817   43.0967  142.4097 C   0  0  1  0  0  0  0  0  0  0  0  0
  161.3763   43.7651  141.7795 O   0  0  0  0  0  0  0  0  0  0  0  0
  160.5713   41.6254  142.3392 C   0  0  2  0  0  0  0  0  0  0  0  0
  159.2967   40.8854  142.1825 N   0  0  0  0  0  0  0  0  0  0  0  0
  158.7809   40.0170  143.0697 C   0  0  0  0  0  0  0  0  0  0  0  0
  157.6128   39.5052  142.6128 N   0  0  0  0  0  0  0  0  0  0  0  0
  157.3630   40.0482  141.4080 C   0  0  0  0  0  0  0  0  0  0  0  0
  156.2967   39.9414  140.3845 C   0  0  0  0  0  0  0  0  0  0  0  0
  155.3201   39.1750  140.5660 O   0  0  0  0  0  0  0  0  0  0  0  0
  156.4181   40.6847  139.2713 N   0  0  0  0  0  0  0  0  0  0  0  0
  157.4690   41.5046  139.0805 C   0  0  0  0  0  0  0  0  0  0  0  0
  157.5363   42.2324  137.9434 N   0  0  0  0  0  0  0  0  0  0  0  0
  158.4753   41.6491  139.9723 N   0  0  0  0  0  0  0  0  0  0  0  0
  158.4784   40.9593  141.1330 C   0  0  0  0  0  0  0  0  0  0  0  0
  160.1205   46.1119  143.7565 P   0  0  2  0  0  0  0  0  0  0  0  0
  159.4629   46.0459  142.3995 O   0  0  0  0  0  0  0  0  0  0  0  0
  161.1214   47.2034  144.0858 O   0  0  0  0  0  0  0  0  0  0  0  0
  158.9450   46.1124  144.8644 O   0  0  0  0  0  0  0  0  0  0  0  0
  159.2316   46.4849  146.2118 C   0  0  0  0  0  0  0  0  0  0  0  0
  158.1734   46.0025  147.2089 C   0  0  1  0  0  0  0  0  0  0  0  0
  156.9917   46.7932  147.0633 O   0  0  0  0  0  0  0  0  0  0  0  0
  157.7514   44.5436  147.0493 C   0  0  1  0  0  0  0  0  0  0  0  0
  158.4845   43.6713  147.9081 O   0  0  0  0  0  0  0  0  0  0  0  0
  156.2819   44.5899  147.4242 C   0  0  1  0  0  0  0  0  0  0  0  0
  156.1126   44.4477  148.8373 O   0  0  0  0  0  0  0  0  0  0  0  0
  155.8149   45.9807  147.0484 C   0  0  2  0  0  0  0  0  0  0  0  0
  155.2641   45.9635  145.6705 N   0  0  0  0  0  0  0  0  0  0  0  0
  155.8773   46.4483  144.5726 C   0  0  0  0  0  0  0  0  0  0  0  0
  155.1231   46.2745  143.4517 N   0  0  0  0  0  0  0  0  0  0  0  0
  153.9931   45.6548  143.8276 C   0  0  0  0  0  0  0  0  0  0  0  0
  152.7568   45.1812  143.1545 C   0  0  0  0  0  0  0  0  0  0  0  0
  152.5787   45.2977  141.9229 O   0  0  0  0  0  0  0  0  0  0  0  0
  151.8305   44.5921  143.9125 N   0  0  0  0  0  0  0  0  0  0  0  0
  151.9770   44.4376  145.2375 C   0  0  0  0  0  0  0  0  0  0  0  0
  150.9761   43.8436  145.9044 N   0  0  0  0  0  0  0  0  0  0  0  0
  153.0686   44.8497  145.9236 N   0  0  0  0  0  0  0  0  0  0  0  0
  154.0928   45.4558  145.2874 C   0  0  0  0  0  0  0  0  0  0  0  0
  1  3  2  6  0  0  0
  1 32  1  0  0  0  0
  1  2  1  0  0  0  0
  1  4  1  0  0  0  0
  4  5  1  0  0  0  0
  6  5  1  1  0  0  0
  7  6  1  0  0  0  0
  8  6  1  0  0  0  0
  8 10  1  0  0  0  0
  8  9  1  6  0  0  0
 10 11  1  6  0  0  0
 12 13  1  1  0  0  0
 12  7  1  0  0  0  0
 12 10  1  0  0  0  0
 14 13  1  0  0  0  0
 15 16  1  0  0  0  0
 15 14  2  0  0  0  0
 16 23  2  0  0  0  0
 17 16  1  0  0  0  0
 17 19  1  0  0  0  0
 18 17  2  0  0  0  0
 19 20  2  0  0  0  0
 20 22  1  0  0  0  0
 20 21  1  0  0  0  0
 23 13  1  0  0  0  0
 23 22  1  0  0  0  0
 24 25  2  6  0  0  0
 24  9  1  0  0  0  0
 24 26  1  0  0  0  0
 27 28  1  0  0  0  0
 27 24  1  0  0  0  0
 29 30  1  6  0  0  0
 29 28  1  0  0  0  0
 31 32  1  1  0  0  0
 31 29  1  0  0  0  0
 33 34  1  1  0  0  0
 33 35  1  0  0  0  0
 33 31  1  0  0  0  0
 35 36  1  6  0  0  0
 35 30  1  0  0  0  0
 36 37  1  0  0  0  0
 38 37  2  0  0  0  0
 39 38  1  0  0  0  0
 40 41  2  0  0  0  0
 40 39  1  0  0  0  0
 42 40  1  0  0  0  0
 43 42  2  0  0  0  0
 43 45  1  0  0  0  0
 44 43  1  0  0  0  0
 45 46  1  0  0  0  0
 46 39  2  0  0  0  0
 46 36  1  0  0  0  0
M  END
>  <CHROM.1>
-0.67787331,9.77732631,157.56716699,43.57329692,144.22952405,-2.12368987
0.18647544,-2.12350530

>  <Name>
lig.pdb

>  <RI>
0

>  <Rbt.Current_Directory>
/home/itssahil/PROJECTS/Mol_Feturizer/New_Systems/rnas/4yb0

>  <Rbt.Executable>
rbdock ($Id: //depot/dev/client3/rdock/2013.1/src/exe/rbdock.cxx#4 $)

>  <Rbt.Library>
libRbt.so (2013.1, Build901 2013/11/27)

>  <Rbt.Parameter_File>
/export/apps/rDock/src/rDock_2013.1_src/data/scripts/dock_solv.prm

>  <Rbt.Receptor>
prm/pocket_docking_6.prm

>  <SCORE>
-50.5539

>  <SCORE.INTER>
-50.5814

>  <SCORE.INTER.CONST>
1

>  <SCORE.INTER.POLAR>
0

>  <SCORE.INTER.ROT>
2

>  <SCORE.INTER.SOLV>
29.0462

>  <SCORE.INTER.VDW>
-48.3363

>  <SCORE.INTER.norm>
-1.0996

>  <SCORE.INTRA>
0.0275306

>  <SCORE.INTRA.DIHEDRAL>
0.0872937

>  <SCORE.INTRA.DIHEDRAL.0>
4.74153

>  <SCORE.INTRA.POLAR>
0

>  <SCORE.INTRA.POLAR.0>
0

>  <SCORE.INTRA.REPUL>
0

>  <SCORE.INTRA.REPUL.0>
0

>  <SCORE.INTRA.SOLV>
0.110459

>  <SCORE.INTRA.SOLV.lig_0>
-60.4375

>  <SCORE.INTRA.VDW>
-0.0713457

>  <SCORE.INTRA.VDW.0>
-1.83689

>  <SCORE.INTRA.norm>
0.000598491

>  <SCORE.RESTR>
0

>  <SCORE.RESTR.CAVITY>
0

>  <SCORE.RESTR.norm>
0

>  <SCORE.SYSTEM>
0

>  <SCORE.SYSTEM.CONST>
0

>  <SCORE.SYSTEM.DIHEDRAL>
0

>  <SCORE.SYSTEM.SOLV>
0

>  <SCORE.SYSTEM.norm>
0

>  <SCORE.heavy>
46

>  <SCORE.norm>
-1.099

>  <RMSD>
0.482

$$$$
lig.pdb
 OpenBabel11021811523D
libRbt.so/2013.1/901 2013/11/27
 46 52  0  0  0  0  0  0  0  0999 V2000
  159.6392   46.2377  143.4045 P   0  0  2  0  0  0  0  0  0  0  0  0
  160.2798   47.5798  143.6835 O   0  0  0  0  0  0  0  0  0  0  0  0
  159.1463   46.0010  142.0002 O   0  0  0  0  0  0  0  0  0  0  0  0
  158.4278   45.9457  144.4206 O   0  0  0  0  0  0  0  0  0  0  0  0
  158.1874   46.7750  145.5499 C   0  0  0  0  0  0  0  0  0  0  0  0
  157.2655   46.0663  146.5285 C   0  0  1  0  0  0  0  0  0  0  0  0
  155.9670   46.6261  146.3933 O   0  0  0  0  0  0  0  0  0  0  0  0
  157.1068   44.5660  146.3167 C   0  0  1  0  0  0  0  0  0  0  0  0
  157.8670   43.8630  147.2885 O   0  0  0  0  0  0  0  0  0  0  0  0
  155.6415   44.3232  146.6010 C   0  0  1  0  0  0  0  0  0  0  0  0
  155.4635   44.0346  147.9892 O   0  0  0  0  0  0  0  0  0  0  0  0
  154.9554   45.6321  146.3372 C   0  0  2  0  0  0  0  0  0  0  0  0
  154.3831   45.6148  144.9700 N   0  0  0  0  0  0  0  0  0  0  0  0
  154.9964   46.0570  143.8584 C   0  0  0  0  0  0  0  0  0  0  0  0
  154.1911   45.9112  142.7789 N   0  0  0  0  0  0  0  0  0  0  0  0
  153.0338   45.3655  143.1932 C   0  0  0  0  0  0  0  0  0  0  0  0
  151.7595   44.9479  142.5626 C   0  0  0  0  0  0  0  0  0  0  0  0
  151.5869   45.0933  141.3285 O   0  0  0  0  0  0  0  0  0  0  0  0
  150.8111   44.4183  143.3542 N   0  0  0  0  0  0  0  0  0  0  0  0
  151.0006   44.2658  144.6785 C   0  0  0  0  0  0  0  0  0  0  0  0
  150.0133   43.7226  145.4251 N   0  0  0  0  0  0  0  0  0  0  0  0
  152.1373   44.6254  145.3168 N   0  0  0  0  0  0  0  0  0  0  0  0
  153.1703   45.1714  144.6401 C   0  0  0  0  0  0  0  0  0  0  0  0
  158.1586   42.2678  147.2096 P   0  0  2  0  0  0  0  0  0  0  0  0
  156.8613   41.5387  146.9575 O   0  0  0  0  0  0  0  0  0  0  0  0
  159.0169   41.9377  148.4163 O   0  0  0  0  0  0  0  0  0  0  0  0
  159.0512   42.1450  145.8689 O   0  0  0  0  0  0  0  0  0  0  0  0
  160.4438   42.4544  145.9054 C   0  0  0  0  0  0  0  0  0  0  0  0
  161.0346   42.7394  144.5210 C   0  0  1  0  0  0  0  0  0  0  0  0
  161.1535   41.5132  143.7964 O   0  0  0  0  0  0  0  0  0  0  0  0
  160.2149   43.6894  143.6507 C   0  0  1  0  0  0  0  0  0  0  0  0
  160.6603   45.0408  143.7569 O   0  0  0  0  0  0  0  0  0  0  0  0
  160.4475   43.1333  142.2583 C   0  0  1  0  0  0  0  0  0  0  0  0
  161.6344   43.6854  141.6818 O   0  0  0  0  0  0  0  0  0  0  0  0
  160.6843   41.6501  142.4524 C   0  0  2  0  0  0  0  0  0  0  0  0
  159.3987   40.9210  142.3189 N   0  0  0  0  0  0  0  0  0  0  0  0
  158.8833   40.0642  143.2227 C   0  0  0  0  0  0  0  0  0  0  0  0
  157.6820   39.5640  142.8202 N   0  0  0  0  0  0  0  0  0  0  0  0
  157.4043   40.1139  141.6274 C   0  0  0  0  0  0  0  0  0  0  0  0
  156.3048   40.0174  140.6337 C   0  0  0  0  0  0  0  0  0  0  0  0
  155.2992   39.2979  140.8161 O   0  0  0  0  0  0  0  0  0  0  0  0
  156.4092   40.7547  139.5268 N   0  0  0  0  0  0  0  0  0  0  0  0
  157.4653   41.5472  139.2873 C   0  0  0  0  0  0  0  0  0  0  0  0
  157.4735   42.2339  138.1351 N   0  0  0  0  0  0  0  0  0  0  0  0
  158.5092   41.6819  140.1385 N   0  0  0  0  0  0  0  0  0  0  0  0
  158.5383   41.0028  141.3044 C   0  0  0  0  0  0  0  0  0  0  0  0
  1  3  2  6  0  0  0
  1 32  1  0  0  0  0
  1  2  1  0  0  0  0
  1  4  1  0  0  0  0
  4  5  1  0  0  0  0
  6  5  1  6  0  0  0
  7  6  1  0  0  0  0
  8  6  1  0  0  0  0
  8 10  1  0  0  0  0
  8  9  1  1  0  0  0
 10 11  1  1  0  0  0
 12 13  1  6  0  0  0
 12  7  1  0  0  0  0
 12 10  1  0  0  0  0
 14 13  1  0  0  0  0
 15 16  1  0  0  0  0
 15 14  2  0  0  0  0
 16 23  2  0  0  0  0
 17 16  1  0  0  0  0
 17 19  1  0  0  0  0
 18 17  2  0  0  0  0
 19 20  2  0  0  0  0
 20 22  1  0  0  0  0
 20 21  1  0  0  0  0
 23 13  1  0  0  0  0
 23 22  1  0  0  0  0
 24 25  2  6  0  0  0
 24  9  1  0  0  0  0
 24 26  1  0  0  0  0
 27 28  1  0  0  0  0
 27 24  1  0  0  0  0
 29 30  1  6  0  0  0
 29 28  1  0  0  0  0
 31 32  1  6  0  0  0
 31 29  1  0  0  0  0
 33 34  1  1  0  0  0
 33 35  1  0  0  0  0
 33 31  1  0  0  0  0
 35 36  1  1  0  0  0
 35 30  1  0  0  0  0
 36 37  1  0  0  0  0
 38 37  2  0  0  0  0
 39 38  1  0  0  0  0
 40 41  2  0  0  0  0
 40 39  1  0  0  0  0
 42 40  1  0  0  0  0
 43 42  2  0  0  0  0
 43 45  1  0  0  0  0
 44 43  1  0  0  0  0
 45 46  1  0  0  0  0
 46 39  2  0  0  0  0
 46 36  1  0  0  0  0
M  END
>  <CHROM.1>
22.92661949,-11.64724992,157.12546855,43.58248177,143.93601648,-0.36011566
-0.16167868,1.00412739

>  <Name>
lig.pdb

>  <RI>
0

>  <Rbt.Current_Directory>
/home/itssahil/PROJECTS/Mol_Feturizer/New_Systems/rnas/4yb0

>  <Rbt.Executable>
rbdock ($Id: //depot/dev/client3/rdock/2013.1/src/exe/rbdock.cxx#4 $)

>  <Rbt.Library>
libRbt.so (2013.1, Build901 2013/11/27)

>  <Rbt.Parameter_File>
/export/apps/rDock/src/rDock_2013.1_src/data/scripts/dock_solv.prm

>  <Rbt.Receptor>
prm/pocket_docking_2.prm

>  <SCORE>
-53.6379

>  <SCORE.INTER>
-53.5234

>  <SCORE.INTER.CONST>
1

>  <SCORE.INTER.POLAR>
0

>  <SCORE.INTER.ROT>
2

>  <SCORE.INTER.SOLV>
31.3016

>  <SCORE.INTER.VDW>
-51.0495

>  <SCORE.INTER.norm>
-1.16355

>  <SCORE.INTRA>
-0.114539

>  <SCORE.INTRA.DIHEDRAL>
-0.0202165

>  <SCORE.INTRA.DIHEDRAL.0>
4.74153

>  <SCORE.INTRA.POLAR>
0

>  <SCORE.INTRA.POLAR.0>
0

>  <SCORE.INTRA.REPUL>
0

>  <SCORE.INTRA.REPUL.0>
0

>  <SCORE.INTRA.SOLV>
0.00233639

>  <SCORE.INTRA.SOLV.lig_0>
-60.4375

>  <SCORE.INTRA.VDW>
-0.105599

>  <SCORE.INTRA.VDW.0>
-1.83689

>  <SCORE.INTRA.norm>
-0.00248998

>  <SCORE.RESTR>
0

>  <SCORE.RESTR.CAVITY>
0

>  <SCORE.RESTR.norm>
0

>  <SCORE.SYSTEM>
0

>  <SCORE.SYSTEM.CONST>
0

>  <SCORE.SYSTEM.DIHEDRAL>
0

>  <SCORE.SYSTEM.SOLV>
0

>  <SCORE.SYSTEM.norm>
0

>  <SCORE.heavy>
46

>  <SCORE.norm>
-1.16604

>  <RMSD>
0.484

$$$$
lig.pdb
 OpenBabel11021811523D
libRbt.so/2013.1/901 2013/11/27
 46 52  0  0  0  0  0  0  0  0999 V2000
  159.6256   46.2752  143.4529 P   0  0  2  0  0  0  0  0  0  0  0  0
  160.2526   47.6209  143.7450 O   0  0  0  0  0  0  0  0  0  0  0  0
  159.1492   46.0415  142.0424 O   0  0  0  0  0  0  0  0  0  0  0  0
  158.4059   45.9688  144.4548 O   0  0  0  0  0  0  0  0  0  0  0  0
  158.1472   46.7908  145.5855 C   0  0  0  0  0  0  0  0  0  0  0  0
  157.2207   46.0701  146.5510 C   0  0  1  0  0  0  0  0  0  0  0  0
  155.9193   46.6205  146.4047 O   0  0  0  0  0  0  0  0  0  0  0  0
  157.0759   44.5698  146.3303 C   0  0  1  0  0  0  0  0  0  0  0  0
  157.8314   43.8680  147.3066 O   0  0  0  0  0  0  0  0  0  0  0  0
  155.6097   44.3141  146.5980 C   0  0  1  0  0  0  0  0  0  0  0  0
  155.4194   44.0174  147.9829 O   0  0  0  0  0  0  0  0  0  0  0  0
  154.9161   45.6188  146.3332 C   0  0  2  0  0  0  0  0  0  0  0  0
  154.3584   45.6037  144.9601 N   0  0  0  0  0  0  0  0  0  0  0  0
  154.9772   46.0622  143.8581 C   0  0  0  0  0  0  0  0  0  0  0  0
  154.1852   45.9133  142.7692 N   0  0  0  0  0  0  0  0  0  0  0  0
  153.0311   45.3491  143.1675 C   0  0  0  0  0  0  0  0  0  0  0  0
  151.7692   44.9190  142.5206 C   0  0  0  0  0  0  0  0  0  0  0  0
  151.6075   45.0710  141.2858 O   0  0  0  0  0  0  0  0  0  0  0  0
  150.8198   44.3710  143.2984 N   0  0  0  0  0  0  0  0  0  0  0  0
  150.9977   44.2115  144.6235 C   0  0  0  0  0  0  0  0  0  0  0  0
  150.0100   43.6497  145.3558 N   0  0  0  0  0  0  0  0  0  0  0  0
  152.1227   44.5817  145.2762 N   0  0  0  0  0  0  0  0  0  0  0  0
  153.1551   45.1464  144.6143 C   0  0  0  0  0  0  0  0  0  0  0  0
  158.1363   42.2755  147.2232 P   0  0  2  0  0  0  0  0  0  0  0  0
  156.8475   41.5375  146.9540 O   0  0  0  0  0  0  0  0  0  0  0  0
  158.9845   41.9463  148.4373 O   0  0  0  0  0  0  0  0  0  0  0  0
  159.0439   42.1662  145.8914 O   0  0  0  0  0  0  0  0  0  0  0  0
  160.4336   42.4863  145.9441 C   0  0  0  0  0  0  0  0  0  0  0  0
  161.0366   42.7825  144.5674 C   0  0  1  0  0  0  0  0  0  0  0  0
  161.1727   41.5608  143.8382 O   0  0  0  0  0  0  0  0  0  0  0  0
  160.2186   43.7303  143.6930 C   0  0  1  0  0  0  0  0  0  0  0  0
  160.6523   45.0847  143.8104 O   0  0  0  0  0  0  0  0  0  0  0  0
  160.4702   43.1828  142.3005 C   0  0  1  0  0  0  0  0  0  0  0  0
  161.6586   43.7469  141.7391 O   0  0  0  0  0  0  0  0  0  0  0  0
  160.7166   41.7006  142.4900 C   0  0  2  0  0  0  0  0  0  0  0  0
  159.4382   40.9621  142.3395 N   0  0  0  0  0  0  0  0  0  0  0  0
  158.9404   40.0658  143.2144 C   0  0  0  0  0  0  0  0  0  0  0  0
  157.7414   39.5673  142.8031 N   0  0  0  0  0  0  0  0  0  0  0  0
  157.4472   40.1586  141.6343 C   0  0  0  0  0  0  0  0  0  0  0  0
  156.3403   40.0868  140.6467 C   0  0  0  0  0  0  0  0  0  0  0  0
  155.3445   39.3494  140.8099 O   0  0  0  0  0  0  0  0  0  0  0  0
  156.4268   40.8666  139.5677 N   0  0  0  0  0  0  0  0  0  0  0  0
  157.4718   41.6799  139.3497 C   0  0  0  0  0  0  0  0  0  0  0  0
  157.4623   42.4097  138.2243 N   0  0  0  0  0  0  0  0  0  0  0  0
  158.5214   41.7944  140.1968 N   0  0  0  0  0  0  0  0  0  0  0  0
  158.5682   41.0722  141.3359 C   0  0  0  0  0  0  0  0  0  0  0  0
  1  3  2  6  0  0  0
  1 32  1  0  0  0  0
  1  2  1  0  0  0  0
  1  4  1  0  0  0  0
  4  5  1  0  0  0  0
  6  5  1  6  0  0  0
  7  6  1  0  0  0  0
  8  6  1  0  0  0  0
  8 10  1  0  0  0  0
  8  9  1  1  0  0  0
 10 11  1  1  0  0  0
 12 13  1  6  0  0  0
 12  7  1  0  0  0  0
 12 10  1  0  0  0  0
 14 13  1  0  0  0  0
 15 16  1  0  0  0  0
 15 14  2  0  0  0  0
 16 23  2  0  0  0  0
 17 16  1  0  0  0  0
 17 19  1  0  0  0  0
 18 17  2  0  0  0  0
 19 20  2  0  0  0  0
 20 22  1  0  0  0  0
 20 21  1  0  0  0  0
 23 13  1  0  0  0  0
 23 22  1  0  0  0  0
 24 25  2  6  0  0  0
 24  9  1  0  0  0  0
 24 26  1  0  0  0  0
 27 28  1  0  0  0  0
 27 24  1  0  0  0  0
 29 30  1  6  0  0  0
 29 28  1  0  0  0  0
 31 32  1  6  0  0  0
 31 29  1  0  0  0  0
 33 34  1  1  0  0  0
 33 35  1  0  0  0  0
 33 31  1  0  0  0  0
 35 36  1  1  0  0  0
 35 30  1  0  0  0  0
 36 37  1  0  0  0  0
 38 37  2  0  0  0  0
 39 38  1  0  0  0  0
 40 41  2  0  0  0  0
 40 39  1  0  0  0  0
 42 40  1  0  0  0  0
 43 42  2  0  0  0  0
 43 45  1  0  0  0  0
 44 43  1  0  0  0  0
 45 46  1  0  0  0  0
 46 39  2  0  0  0  0
 46 36  1  0  0  0  0
M  END
>  <CHROM.1>
22.57534797,-13.83687320,157.12233742,43.60486959,143.95067934,-0.32697256
-0.16089640,1.01445726

>  <Name>
lig.pdb

>  <RI>
0

>  <Rbt.Current_Directory>
/home/itssahil/PROJECTS/Mol_Feturizer/New_Systems/rnas/4yb0

>  <Rbt.Executable>
rbdock ($Id: //depot/dev/client3/rdock/2013.1/src/exe/rbdock.cxx#4 $)

>  <Rbt.Library>
libRbt.so (2013.1, Build901 2013/11/27)

>  <Rbt.Parameter_File>
/export/apps/rDock/src/rDock_2013.1_src/data/scripts/dock_solv.prm

>  <Rbt.Receptor>
prm/pocket_docking_2.prm

>  <SCORE>
-53.6078

>  <SCORE.INTER>
-53.507

>  <SCORE.INTER.CONST>
1

>  <SCORE.INTER.POLAR>
0

>  <SCORE.INTER.ROT>
2

>  <SCORE.INTER.SOLV>
30.9039

>  <SCORE.INTER.VDW>
-50.9059

>  <SCORE.INTER.norm>
-1.16319

>  <SCORE.INTRA>
-0.100815

>  <SCORE.INTRA.DIHEDRAL>
-0.0252191

>  <SCORE.INTRA.DIHEDRAL.0>
4.74153

>  <SCORE.INTRA.POLAR>
0

>  <SCORE.INTRA.POLAR.0>
0

>  <SCORE.INTRA.REPUL>
0

>  <SCORE.INTRA.REPUL.0>
0

>  <SCORE.INTRA.SOLV>
-0.00416877

>  <SCORE.INTRA.SOLV.lig_0>
-60.4375

>  <SCORE.INTRA.VDW>
-0.0861214

>  <SCORE.INTRA.VDW.0>
-1.83689

>  <SCORE.INTRA.norm>
-0.00219164

>  <SCORE.RESTR>
0

>  <SCORE.RESTR.CAVITY>
0

>  <SCORE.RESTR.norm>
0

>  <SCORE.SYSTEM>
0

>  <SCORE.SYSTEM.CONST>
0

>  <SCORE.SYSTEM.DIHEDRAL>
0

>  <SCORE.SYSTEM.SOLV>
0

>  <SCORE.SYSTEM.norm>
0

>  <SCORE.heavy>
46

>  <SCORE.norm>
-1.16539

>  <RMSD>
0.485

$$$$
lig.pdb
 OpenBabel11021811523D
libRbt.so/2013.1/901 2013/11/27
 46 52  0  0  0  0  0  0  0  0999 V2000
  159.6321   46.2589  143.4202 P   0  0  2  0  0  0  0  0  0  0  0  0
  160.2648   47.6031  143.7073 O   0  0  0  0  0  0  0  0  0  0  0  0
  159.1487   46.0244  142.0122 O   0  0  0  0  0  0  0  0  0  0  0  0
  158.4161   45.9580  144.4280 O   0  0  0  0  0  0  0  0  0  0  0  0
  158.1650   46.7826  145.5585 C   0  0  0  0  0  0  0  0  0  0  0  0
  157.2406   46.0665  146.5293 C   0  0  1  0  0  0  0  0  0  0  0  0
  155.9403   46.6208  146.3881 O   0  0  0  0  0  0  0  0  0  0  0  0
  157.0901   44.5662  146.3118 C   0  0  1  0  0  0  0  0  0  0  0  0
  157.8477   43.8636  147.2858 O   0  0  0  0  0  0  0  0  0  0  0  0
  155.6242   44.3157  146.5865 C   0  0  1  0  0  0  0  0  0  0  0  0
  155.4393   44.0218  147.9727 O   0  0  0  0  0  0  0  0  0  0  0  0
  154.9337   45.6222  146.3227 C   0  0  2  0  0  0  0  0  0  0  0  0
  154.3697   45.6067  144.9521 N   0  0  0  0  0  0  0  0  0  0  0  0
  154.9853   46.0606  143.8465 C   0  0  0  0  0  0  0  0  0  0  0  0
  154.1878   45.9127  142.7615 N   0  0  0  0  0  0  0  0  0  0  0  0
  153.0334   45.3539  143.1660 C   0  0  0  0  0  0  0  0  0  0  0  0
  151.7668   44.9275  142.5257 C   0  0  0  0  0  0  0  0  0  0  0  0
  151.6002   45.0778  141.2913 O   0  0  0  0  0  0  0  0  0  0  0  0
  150.8188   44.3849  143.3089 N   0  0  0  0  0  0  0  0  0  0  0  0
  151.0020   44.2272  144.6334 C   0  0  0  0  0  0  0  0  0  0  0  0
  150.0154   43.6708  145.3713 N   0  0  0  0  0  0  0  0  0  0  0  0
  152.1314   44.5942  145.2804 N   0  0  0  0  0  0  0  0  0  0  0  0
  153.1631   45.1535  144.6127 C   0  0  0  0  0  0  0  0  0  0  0  0
  158.1472   42.2700  147.2036 P   0  0  2  0  0  0  0  0  0  0  0  0
  156.8548   41.5357  146.9415 O   0  0  0  0  0  0  0  0  0  0  0  0
  158.9998   41.9401  148.4145 O   0  0  0  0  0  0  0  0  0  0  0  0
  159.0484   42.1557  145.8679 O   0  0  0  0  0  0  0  0  0  0  0  0
  160.4393   42.4714  145.9138 C   0  0  0  0  0  0  0  0  0  0  0  0
  161.0370   42.7635  144.5339 C   0  0  1  0  0  0  0  0  0  0  0  0
  161.1659   41.5402  143.8061 O   0  0  0  0  0  0  0  0  0  0  0  0
  160.2181   43.7125  143.6617 C   0  0  1  0  0  0  0  0  0  0  0  0
  160.6566   45.0657  143.7749 O   0  0  0  0  0  0  0  0  0  0  0  0
  160.4617   43.1619  142.2690 C   0  0  1  0  0  0  0  0  0  0  0  0
  161.6494   43.7213  141.7013 O   0  0  0  0  0  0  0  0  0  0  0  0
  160.7042   41.6793  142.4598 C   0  0  2  0  0  0  0  0  0  0  0  0
  159.4228   40.9447  142.3163 N   0  0  0  0  0  0  0  0  0  0  0  0
  158.9237   40.0550  143.1971 C   0  0  0  0  0  0  0  0  0  0  0  0
  157.7220   39.5586  142.7913 N   0  0  0  0  0  0  0  0  0  0  0  0
  157.4272   40.1445  141.6200 C   0  0  0  0  0  0  0  0  0  0  0  0
  156.3178   40.0714  140.6353 C   0  0  0  0  0  0  0  0  0  0  0  0
  155.3198   39.3385  140.8048 O   0  0  0  0  0  0  0  0  0  0  0  0
  156.4047   40.8450  139.5519 N   0  0  0  0  0  0  0  0  0  0  0  0
  157.4521   41.6532  139.3271 C   0  0  0  0  0  0  0  0  0  0  0  0
  157.4426   42.3769  138.1977 N   0  0  0  0  0  0  0  0  0  0  0  0
  158.5040   41.7686  140.1711 N   0  0  0  0  0  0  0  0  0  0  0  0
  158.5509   41.0524  141.3140 C   0  0  0  0  0  0  0  0  0  0  0  0
  1  3  2  6  0  0  0
  1 32  1  0  0  0  0
  1  2  1  0  0  0  0
  1  4  1  0  0  0  0
  4  5  1  0  0  0  0
  6  5  1  6  0  0  0
  7  6  1  0  0  0  0
  8  6  1  0  0  0  0
  8 10  1  0  0  0  0
  8  9  1  1  0  0  0
 10 11  1  1  0  0  0
 12 13  1  6  0  0  0
 12  7  1  0  0  0  0
 12 10  1  0  0  0  0
 14 13  1  0  0  0  0
 15 16  1  0  0  0  0
 15 14  2  0  0  0  0
 16 23  2  0  0  0  0
 17 16  1  0  0  0  0
 17 19  1  0  0  0  0
 18 17  2  0  0  0  0
 19 20  2  0  0  0  0
 20 22  1  0  0  0  0
 20 21  1  0  0  0  0
 23 13  1  0  0  0  0
 23 22  1  0  0  0  0
 24 25  2  6  0  0  0
 24  9  1  0  0  0  0
 24 26  1  0  0  0  0
 27 28  1  0  0  0  0
 27 24  1  0  0  0  0
 29 30  1  6  0  0  0
 29 28  1  0  0  0  0
 31 32  1  6  0  0  0
 31 29  1  0  0  0  0
 33 34  1  1  0  0  0
 33 35  1  0  0  0  0
 33 31  1  0  0  0  0
 35 36  1  1  0  0  0
 35 30  1  0  0  0  0
 36 37  1  0  0  0  0
 38 37  2  0  0  0  0
 39 38  1  0  0  0  0
 40 41  2  0  0  0  0
 40 39  1  0  0  0  0
 42 40  1  0  0  0  0
 43 42  2  0  0  0  0
 43 45  1  0  0  0  0
 44 43  1  0  0  0  0
 45 46  1  0  0  0  0
 46 39  2  0  0  0  0
 46 36  1  0  0  0  0
M  END
>  <CHROM.1>
22.62413835,-13.58183939,157.12322107,43.59661731,143.93290275,-0.33486622
-0.16122078,1.01158989

>  <Name>
lig.pdb

>  <RI>
0

>  <Rbt.Current_Directory>
/home/itssahil/PROJECTS/Mol_Feturizer/New_Systems/rnas/4yb0

>  <Rbt.Executable>
rbdock ($Id: //depot/dev/client3/rdock/2013.1/src/exe/rbdock.cxx#4 $)

>  <Rbt.Library>
libRbt.so (2013.1, Build901 2013/11/27)

>  <Rbt.Parameter_File>
/export/apps/rDock/src/rDock_2013.1_src/data/scripts/dock_solv.prm

>  <Rbt.Receptor>
prm/pocket_docking_3.prm

>  <SCORE>
-53.6102

>  <SCORE.INTER>
-53.5077

>  <SCORE.INTER.CONST>
1

>  <SCORE.INTER.POLAR>
0

>  <SCORE.INTER.ROT>
2

>  <SCORE.INTER.SOLV>
31.1047

>  <SCORE.INTER.VDW>
-50.9733

>  <SCORE.INTER.norm>
-1.16321

>  <SCORE.INTRA>
-0.102577

>  <SCORE.INTRA.DIHEDRAL>
-0.0246704

>  <SCORE.INTRA.DIHEDRAL.0>
4.74153

>  <SCORE.INTRA.POLAR>
0

>  <SCORE.INTRA.POLAR.0>
0

>  <SCORE.INTRA.REPUL>
0

>  <SCORE.INTRA.REPUL.0>
0

>  <SCORE.INTRA.SOLV>
-0.00341299

>  <SCORE.INTRA.SOLV.lig_0>
-60.4375

>  <SCORE.INTRA.VDW>
-0.0885356

>  <SCORE.INTRA.VDW.0>
-1.83689

>  <SCORE.INTRA.norm>
-0.00222994

>  <SCORE.RESTR>
0

>  <SCORE.RESTR.CAVITY>
0

>  <SCORE.RESTR.norm>
0

>  <SCORE.SYSTEM>
0

>  <SCORE.SYSTEM.CONST>
0

>  <SCORE.SYSTEM.DIHEDRAL>
0

>  <SCORE.SYSTEM.SOLV>
0

>  <SCORE.SYSTEM.norm>
0

>  <SCORE.heavy>
46

>  <SCORE.norm>
-1.16544

>  <RMSD>
0.485

$$$$
lig.pdb
 OpenBabel11021811523D
libRbt.so/2013.1/901 2013/11/27
 46 52  0  0  0  0  0  0  0  0999 V2000
  158.6065   42.1022  147.5262 P   0  0  2  0  0  0  0  0  0  0  0  0
  159.5030   41.3816  148.5094 O   0  0  0  0  0  0  0  0  0  0  0  0
  157.2064   41.5676  147.3683 O   0  0  0  0  0  0  0  0  0  0  0  0
  159.2828   42.1840  146.0699 O   0  0  0  0  0  0  0  0  0  0  0  0
  160.6378   41.8105  145.8565 C   0  0  0  0  0  0  0  0  0  0  0  0
  161.1207   42.3476  144.5193 C   0  0  1  0  0  0  0  0  0  0  0  0
  161.1383   41.2704  143.5935 O   0  0  0  0  0  0  0  0  0  0  0  0
  160.2548   43.4333  143.8931 C   0  0  1  0  0  0  0  0  0  0  0  0
  160.8756   44.6987  144.0659 O   0  0  0  0  0  0  0  0  0  0  0  0
  160.2781   43.0961  142.4191 C   0  0  1  0  0  0  0  0  0  0  0  0
  161.3751   43.7631  141.7917 O   0  0  0  0  0  0  0  0  0  0  0  0
  160.5636   41.6242  142.3448 C   0  0  2  0  0  0  0  0  0  0  0  0
  159.2870   40.8883  142.1850 N   0  0  0  0  0  0  0  0  0  0  0  0
  158.7676   40.0195  143.0698 C   0  0  0  0  0  0  0  0  0  0  0  0
  157.5985   39.5121  142.6104 N   0  0  0  0  0  0  0  0  0  0  0  0
  157.3518   40.0584  141.4064 C   0  0  0  0  0  0  0  0  0  0  0  0
  156.2864   39.9569  140.3814 C   0  0  0  0  0  0  0  0  0  0  0  0
  155.3074   39.1930  140.5602 O   0  0  0  0  0  0  0  0  0  0  0  0
  156.4113   40.7021  139.2699 N   0  0  0  0  0  0  0  0  0  0  0  0
  157.4649   41.5194  139.0822 C   0  0  0  0  0  0  0  0  0  0  0  0
  157.5357   42.2494  137.9467 N   0  0  0  0  0  0  0  0  0  0  0  0
  158.4705   41.6590  139.9755 N   0  0  0  0  0  0  0  0  0  0  0  0
  158.4702   40.9668  141.1347 C   0  0  0  0  0  0  0  0  0  0  0  0
  160.1243   46.1081  143.7739 P   0  0  2  0  0  0  0  0  0  0  0  0
  159.4677   46.0477  142.4162 O   0  0  0  0  0  0  0  0  0  0  0  0
  161.1281   47.1959  144.1071 O   0  0  0  0  0  0  0  0  0  0  0  0
  158.9479   46.1089  144.8809 O   0  0  0  0  0  0  0  0  0  0  0  0
  159.2344   46.4770  146.2295 C   0  0  0  0  0  0  0  0  0  0  0  0
  158.1739   45.9950  147.2243 C   0  0  1  0  0  0  0  0  0  0  0  0
  156.9946   46.7894  147.0798 O   0  0  0  0  0  0  0  0  0  0  0  0
  157.7479   44.5377  147.0604 C   0  0  1  0  0  0  0  0  0  0  0  0
  158.4778   43.6609  147.9175 O   0  0  0  0  0  0  0  0  0  0  0  0
  156.2782   44.5872  147.4341 C   0  0  1  0  0  0  0  0  0  0  0  0
  156.1073   44.4416  148.8467 O   0  0  0  0  0  0  0  0  0  0  0  0
  155.8156   45.9803  147.0617 C   0  0  2  0  0  0  0  0  0  0  0  0
  155.2658   45.9684  145.6834 N   0  0  0  0  0  0  0  0  0  0  0  0
  155.8749   46.4680  144.5897 C   0  0  0  0  0  0  0  0  0  0  0  0
  155.1233   46.2955  143.4670 N   0  0  0  0  0  0  0  0  0  0  0  0
  153.9993   45.6615  143.8370 C   0  0  0  0  0  0  0  0  0  0  0  0
  152.7684   45.1807  143.1593 C   0  0  0  0  0  0  0  0  0  0  0  0
  152.5900   45.3051  141.9285 O   0  0  0  0  0  0  0  0  0  0  0  0
  151.8475   44.5763  143.9119 N   0  0  0  0  0  0  0  0  0  0  0  0
  151.9946   44.4128  145.2357 C   0  0  0  0  0  0  0  0  0  0  0  0
  150.9994   43.8035  145.8972 N   0  0  0  0  0  0  0  0  0  0  0  0
  153.0815   44.8306  145.9260 N   0  0  0  0  0  0  0  0  0  0  0  0
  154.1001   45.4520  145.2953 C   0  0  0  0  0  0  0  0  0  0  0  0
  1  3  2  6  0  0  0
  1 32  1  0  0  0  0
  1  2  1  0  0  0  0
  1  4  1  0  0  0  0
  4  5  1  0  0  0  0
  6  5  1  1  0  0  0
  7  6  1  0  0  0  0
  8  6  1  0  0  0  0
  8 10  1  0  0  0  0
  8  9  1  6  0  0  0
 10 11  1  6  0  0  0
 12 13  1  1  0  0  0
 12  7  1  0  0  0  0
 12 10  1  0  0  0  0
 14 13  1  0  0  0  0
 15 16  1  0  0  0  0
 15 14  2  0  0  0  0
 16 23  2  0  0  0  0
 17 16  1  0  0  0  0
 17 19  1  0  0  0  0
 18 17  2  0  0  0  0
 19 20  2  0  0  0  0
 20 22  1  0  0  0  0
 20 21  1  0  0  0  0
 23 13  1  0  0  0  0
 23 22  1  0  0  0  0
 24 25  2  6  0  0  0
 24  9  1  0  0  0  0
 24 26  1  0  0  0  0
 27 28  1  0  0  0  0
 27 24  1  0  0  0  0
 29 30  1  6  0  0  0
 29 28  1  0  0  0  0
 31 32  1  1  0  0  0
 31 29  1  0  0  0  0
 33 34  1  1  0  0  0
 33 35  1  0  0  0  0
 33 31  1  0  0  0  0
 35 36  1  6  0  0  0
 35 30  1  0  0  0  0
 36 37  1  0  0  0  0
 38 37  2  0  0  0  0
 39 38  1  0  0  0  0
 40 41  2  0  0  0  0
 40 39  1  0  0  0  0
 42 40  1  0  0  0  0
 43 42  2  0  0  0  0
 43 45  1  0  0  0  0
 44 43  1  0  0  0  0
 45 46  1  0  0  0  0
 46 39  2  0  0  0  0
 46 36  1  0  0  0  0
M  END
>  <CHROM.1>
-0.63796794,8.97784281,157.56538415,43.57157586,144.23705001,-2.11203785
0.18616497,-2.12142205

>  <Name>
lig.pdb

>  <RI>
0

>  <Rbt.Current_Directory>
/home/itssahil/PROJECTS/Mol_Feturizer/New_Systems/rnas/4yb0

>  <Rbt.Executable>
rbdock ($Id: //depot/dev/client3/rdock/2013.1/src/exe/rbdock.cxx#4 $)

>  <Rbt.Library>
libRbt.so (2013.1, Build901 2013/11/27)

>  <Rbt.Parameter_File>
/export/apps/rDock/src/rDock_2013.1_src/data/scripts/dock_solv.prm

>  <Rbt.Receptor>
prm/pocket_docking_4.prm

>  <SCORE>
-50.4907

>  <SCORE.INTER>
-50.5195

>  <SCORE.INTER.CONST>
1

>  <SCORE.INTER.POLAR>
0

>  <SCORE.INTER.ROT>
2

>  <SCORE.INTER.SOLV>
28.9757

>  <SCORE.INTER.VDW>
-48.2716

>  <SCORE.INTER.norm>
-1.09825

>  <SCORE.INTRA>
0.0288522

>  <SCORE.INTRA.DIHEDRAL>
0.0849495

>  <SCORE.INTRA.DIHEDRAL.0>
4.74153

>  <SCORE.INTRA.POLAR>
0

>  <SCORE.INTRA.POLAR.0>
0

>  <SCORE.INTRA.REPUL>
0

>  <SCORE.INTRA.REPUL.0>
0

>  <SCORE.INTRA.SOLV>
0.109051

>  <SCORE.INTRA.SOLV.lig_0>
-60.4375

>  <SCORE.INTRA.VDW>
-0.0681481

>  <SCORE.INTRA.VDW.0>
-1.83689

>  <SCORE.INTRA.norm>
0.000627221

>  <SCORE.RESTR>
0

>  <SCORE.RESTR.CAVITY>
0

>  <SCORE.RESTR.norm>
0

>  <SCORE.SYSTEM>
0

>  <SCORE.SYSTEM.CONST>
0

>  <SCORE.SYSTEM.DIHEDRAL>
0

>  <SCORE.SYSTEM.SOLV>
0

>  <SCORE.SYSTEM.norm>
0

>  <SCORE.heavy>
46

>  <SCORE.norm>
-1.09762

>  <RMSD>
0.485

$$$$
lig.pdb
 OpenBabel11021811523D
libRbt.so/2013.1/901 2013/11/27
 46 52  0  0  0  0  0  0  0  0999 V2000
  159.6420   46.2793  143.4477 P   0  0  2  0  0  0  0  0  0  0  0  0
  160.2787   47.6182  143.7505 O   0  0  0  0  0  0  0  0  0  0  0  0
  159.1628   46.0608  142.0357 O   0  0  0  0  0  0  0  0  0  0  0  0
  158.4211   45.9731  144.4480 O   0  0  0  0  0  0  0  0  0  0  0  0
  158.1690   46.7873  145.5858 C   0  0  0  0  0  0  0  0  0  0  0  0
  157.2384   46.0651  146.5461 C   0  0  1  0  0  0  0  0  0  0  0  0
  155.9407   46.6257  146.4056 O   0  0  0  0  0  0  0  0  0  0  0  0
  157.0829   44.5677  146.3129 C   0  0  1  0  0  0  0  0  0  0  0  0
  157.8343   43.8525  147.2827 O   0  0  0  0  0  0  0  0  0  0  0  0
  155.6151   44.3201  146.5799 C   0  0  1  0  0  0  0  0  0  0  0  0
  155.4240   44.0131  147.9624 O   0  0  0  0  0  0  0  0  0  0  0  0
  154.9305   45.6318  146.3266 C   0  0  2  0  0  0  0  0  0  0  0  0
  154.3716   45.6321  144.9539 N   0  0  0  0  0  0  0  0  0  0  0  0
  154.9998   46.0785  143.8524 C   0  0  0  0  0  0  0  0  0  0  0  0
  154.2037   45.9499  142.7638 N   0  0  0  0  0  0  0  0  0  0  0  0
  153.0374   45.4113  143.1619 C   0  0  0  0  0  0  0  0  0  0  0  0
  151.7655   45.0113  142.5152 C   0  0  0  0  0  0  0  0  0  0  0  0
  151.6064   45.1694  141.2809 O   0  0  0  0  0  0  0  0  0  0  0  0
  150.8045   44.4836  143.2928 N   0  0  0  0  0  0  0  0  0  0  0  0
  150.9797   44.3175  144.6174 C   0  0  0  0  0  0  0  0  0  0  0  0
  149.9801   43.7769  145.3494 N   0  0  0  0  0  0  0  0  0  0  0  0
  152.1134   44.6607  145.2699 N   0  0  0  0  0  0  0  0  0  0  0  0
  153.1579   45.2030  144.6082 C   0  0  0  0  0  0  0  0  0  0  0  0
  158.1280   42.2586  147.1857 P   0  0  2  0  0  0  0  0  0  0  0  0
  156.8338   41.5320  146.9115 O   0  0  0  0  0  0  0  0  0  0  0  0
  158.9749   41.9134  148.3962 O   0  0  0  0  0  0  0  0  0  0  0  0
  159.0337   42.1542  145.8522 O   0  0  0  0  0  0  0  0  0  0  0  0
  160.4256   42.4641  145.9062 C   0  0  0  0  0  0  0  0  0  0  0  0
  161.0295   42.7677  144.5315 C   0  0  1  0  0  0  0  0  0  0  0  0
  161.1564   41.5512  143.7920 O   0  0  0  0  0  0  0  0  0  0  0  0
  160.2174   43.7285  143.6659 C   0  0  1  0  0  0  0  0  0  0  0  0
  160.6607   45.0787  143.7942 O   0  0  0  0  0  0  0  0  0  0  0  0
  160.4640   43.1909  142.2686 C   0  0  1  0  0  0  0  0  0  0  0  0
  161.6559   43.7514  141.7109 O   0  0  0  0  0  0  0  0  0  0  0  0
  160.7001   41.7055  142.4455 C   0  0  2  0  0  0  0  0  0  0  0  0
  159.4165   40.9773  142.2900 N   0  0  0  0  0  0  0  0  0  0  0  0
  158.9198   40.0669  143.1508 C   0  0  0  0  0  0  0  0  0  0  0  0
  157.7151   39.5832  142.7387 N   0  0  0  0  0  0  0  0  0  0  0  0
  157.4159   40.1988  141.5837 C   0  0  0  0  0  0  0  0  0  0  0  0
  156.3016   40.1525  140.6030 C   0  0  0  0  0  0  0  0  0  0  0  0
  155.3028   39.4176  140.7590 O   0  0  0  0  0  0  0  0  0  0  0  0
  156.3849   40.9526  139.5388 N   0  0  0  0  0  0  0  0  0  0  0  0
  157.4329   41.7641  139.3291 C   0  0  0  0  0  0  0  0  0  0  0  0
  157.4195   42.5157  138.2181 N   0  0  0  0  0  0  0  0  0  0  0  0
  158.4892   41.8562  140.1705 N   0  0  0  0  0  0  0  0  0  0  0  0
  158.5400   41.1118  141.2950 C   0  0  0  0  0  0  0  0  0  0  0  0
  1  3  2  6  0  0  0
  1 32  1  0  0  0  0
  1  2  1  0  0  0  0
  1  4  1  0  0  0  0
  4  5  1  0  0  0  0
  6  5  1  6  0  0  0
  7  6  1  0  0  0  0
  8  6  1  0  0  0  0
  8 10  1  0  0  0  0
  8  9  1  1  0  0  0
 10 11  1  1  0  0  0
 12 13  1  6  0  0  0
 12  7  1  0  0  0  0
 12 10  1  0  0  0  0
 14 13  1  0  0  0  0
 15 16  1  0  0  0  0
 15 14  2  0  0  0  0
 16 23  2  0  0  0  0
 17 16  1  0  0  0  0
 17 19  1  0  0  0  0
 18 17  2  0  0  0  0
 19 20  2  0  0  0  0
 20 22  1  0  0  0  0
 20 21  1  0  0  0  0
 23 13  1  0  0  0  0
 23 22  1  0  0  0  0
 24 25  2  6  0  0  0
 24  9  1  0  0  0  0
 24 26  1  0  0  0  0
 27 28  1  0  0  0  0
 27 24  1  0  0  0  0
 29 30  1  6  0  0  0
 29 28  1  0  0  0  0
 31 32  1  6  0  0  0
 31 29  1  0  0  0  0
 33 34  1  1  0  0  0
 33 35  1  0  0  0  0
 33 31  1  0  0  0  0
 35 36  1  1  0  0  0
 35 30  1  0  0  0  0
 36 37  1  0  0  0  0
 38 37  2  0  0  0  0
 39 38  1  0  0  0  0
 40 41  2  0  0  0  0
 40 39  1  0  0  0  0
 42 40  1  0  0  0  0
 43 42  2  0  0  0  0
 43 45  1  0  0  0  0
 44 43  1  0  0  0  0
 45 46  1  0  0  0  0
 46 39  2  0  0  0  0
 46 36  1  0  0  0  0
M  END
>  <CHROM.1>
23.55283943,-14.57233479,157.11672019,43.63029472,143.92814085,-0.32795158
-0.17050174,1.02439683

>  <Name>
lig.pdb

>  <RI>
0

>  <Rbt.Current_Directory>
/home/itssahil/PROJECTS/Mol_Feturizer/New_Systems/rnas/4yb0

>  <Rbt.Executable>
rbdock ($Id: //depot/dev/client3/rdock/2013.1/src/exe/rbdock.cxx#4 $)

>  <Rbt.Library>
libRbt.so (2013.1, Build901 2013/11/27)

>  <Rbt.Parameter_File>
/export/apps/rDock/src/rDock_2013.1_src/data/scripts/dock_solv.prm

>  <Rbt.Receptor>
prm/pocket_docking_8.prm

>  <SCORE>
-53.6496

>  <SCORE.INTER>
-53.5269

>  <SCORE.INTER.CONST>
1

>  <SCORE.INTER.POLAR>
0

>  <SCORE.INTER.ROT>
2

>  <SCORE.INTER.SOLV>
31.3196

>  <SCORE.INTER.VDW>
-51.0578

>  <SCORE.INTER.norm>
-1.16363

>  <SCORE.INTRA>
-0.122719

>  <SCORE.INTRA.DIHEDRAL>
-0.0276714

>  <SCORE.INTRA.DIHEDRAL.0>
4.74153

>  <SCORE.INTRA.POLAR>
0

>  <SCORE.INTRA.POLAR.0>
0

>  <SCORE.INTRA.REPUL>
0

>  <SCORE.INTRA.REPUL.0>
0

>  <SCORE.INTRA.SOLV>
-0.00510236

>  <SCORE.INTRA.SOLV.lig_0>
-60.4375

>  <SCORE.INTRA.VDW>
-0.106332

>  <SCORE.INTRA.VDW.0>
-1.83689

>  <SCORE.INTRA.norm>
-0.00266779

>  <SCORE.RESTR>
0

>  <SCORE.RESTR.CAVITY>
0

>  <SCORE.RESTR.norm>
0

>  <SCORE.SYSTEM>
0

>  <SCORE.SYSTEM.CONST>
0

>  <SCORE.SYSTEM.DIHEDRAL>
0

>  <SCORE.SYSTEM.SOLV>
0

>  <SCORE.SYSTEM.norm>
0

>  <SCORE.heavy>
46

>  <SCORE.norm>
-1.1663

>  <RMSD>
0.485

$$$$
lig.pdb
 OpenBabel11021811523D
libRbt.so/2013.1/901 2013/11/27
 46 52  0  0  0  0  0  0  0  0999 V2000
  158.6146   42.1209  147.5401 P   0  0  2  0  0  0  0  0  0  0  0  0
  159.5085   41.4053  148.5293 O   0  0  0  0  0  0  0  0  0  0  0  0
  157.2172   41.5812  147.3761 O   0  0  0  0  0  0  0  0  0  0  0  0
  159.2981   42.2019  146.0870 O   0  0  0  0  0  0  0  0  0  0  0  0
  160.6554   41.8325  145.8813 C   0  0  0  0  0  0  0  0  0  0  0  0
  161.1433   42.3684  144.5455 C   0  0  1  0  0  0  0  0  0  0  0  0
  161.1693   41.2894  143.6220 O   0  0  0  0  0  0  0  0  0  0  0  0
  160.2770   43.4500  143.9126 C   0  0  1  0  0  0  0  0  0  0  0  0
  160.8927   44.7178  144.0859 O   0  0  0  0  0  0  0  0  0  0  0  0
  160.3089   43.1098  142.4395 C   0  0  1  0  0  0  0  0  0  0  0  0
  161.4069   43.7792  141.8162 O   0  0  0  0  0  0  0  0  0  0  0  0
  160.5997   41.6387  142.3697 C   0  0  2  0  0  0  0  0  0  0  0  0
  159.3264   40.8981  142.2050 N   0  0  0  0  0  0  0  0  0  0  0  0
  158.8077   40.0260  143.0868 C   0  0  0  0  0  0  0  0  0  0  0  0
  157.6419   39.5148  142.6232 N   0  0  0  0  0  0  0  0  0  0  0  0
  157.3967   40.0621  141.4193 C   0  0  0  0  0  0  0  0  0  0  0  0
  156.3347   39.9582  140.3910 C   0  0  0  0  0  0  0  0  0  0  0  0
  155.3581   39.1903  140.5657 O   0  0  0  0  0  0  0  0  0  0  0  0
  156.4601   40.7057  139.2811 N   0  0  0  0  0  0  0  0  0  0  0  0
  157.5110   41.5273  139.0978 C   0  0  0  0  0  0  0  0  0  0  0  0
  157.5824   42.2594  137.9637 N   0  0  0  0  0  0  0  0  0  0  0  0
  158.5134   41.6693  139.9943 N   0  0  0  0  0  0  0  0  0  0  0  0
  158.5124   40.9752  141.1524 C   0  0  0  0  0  0  0  0  0  0  0  0
  160.1381   46.1240  143.7872 P   0  0  2  0  0  0  0  0  0  0  0  0
  159.4886   46.0586  142.4262 O   0  0  0  0  0  0  0  0  0  0  0  0
  161.1366   47.2159  144.1231 O   0  0  0  0  0  0  0  0  0  0  0  0
  158.9561   46.1232  144.8881 O   0  0  0  0  0  0  0  0  0  0  0  0
  159.2345   46.4950  146.2374 C   0  0  0  0  0  0  0  0  0  0  0  0
  158.1706   46.0115  147.2279 C   0  0  1  0  0  0  0  0  0  0  0  0
  156.9894   46.8017  147.0757 O   0  0  0  0  0  0  0  0  0  0  0  0
  157.7503   44.5525  147.0649 C   0  0  1  0  0  0  0  0  0  0  0  0
  158.4788   43.6799  147.9275 O   0  0  0  0  0  0  0  0  0  0  0  0
  156.2785   44.5978  147.4310 C   0  0  1  0  0  0  0  0  0  0  0  0
  156.1009   44.4546  148.8430 O   0  0  0  0  0  0  0  0  0  0  0  0
  155.8132   45.9886  147.0533 C   0  0  2  0  0  0  0  0  0  0  0  0
  155.2705   45.9720  145.6722 N   0  0  0  0  0  0  0  0  0  0  0  0
  155.8991   46.4382  144.5749 C   0  0  0  0  0  0  0  0  0  0  0  0
  155.1488   46.2705  143.4506 N   0  0  0  0  0  0  0  0  0  0  0  0
  154.0054   45.6738  143.8234 C   0  0  0  0  0  0  0  0  0  0  0  0
  152.7650   45.2180  143.1458 C   0  0  0  0  0  0  0  0  0  0  0  0
  152.5966   45.3293  141.9124 O   0  0  0  0  0  0  0  0  0  0  0  0
  151.8235   44.6508  143.9020 N   0  0  0  0  0  0  0  0  0  0  0  0
  151.9591   44.5026  145.2288 C   0  0  0  0  0  0  0  0  0  0  0  0
  150.9436   43.9313  145.8934 N   0  0  0  0  0  0  0  0  0  0  0  0
  153.0537   44.8997  145.9190 N   0  0  0  0  0  0  0  0  0  0  0  0
  154.0927   45.4829  145.2851 C   0  0  0  0  0  0  0  0  0  0  0  0
  1  3  2  6  0  0  0
  1 32  1  0  0  0  0
  1  2  1  0  0  0  0
  1  4  1  0  0  0  0
  4  5  1  0  0  0  0
  6  5  1  1  0  0  0
  7  6  1  0  0  0  0
  8  6  1  0  0  0  0
  8 10  1  0  0  0  0
  8  9  1  6  0  0  0
 10 11  1  6  0  0  0
 12 13  1  1  0  0  0
 12  7  1  0  0  0  0
 12 10  1  0  0  0  0
 14 13  1  0  0  0  0
 15 16  1  0  0  0  0
 15 14  2  0  0  0  0
 16 23  2  0  0  0  0
 17 16  1  0  0  0  0
 17 19  1  0  0  0  0
 18 17  2  0  0  0  0
 19 20  2  0  0  0  0
 20 22  1  0  0  0  0
 20 21  1  0  0  0  0
 23 13  1  0  0  0  0
 23 22  1  0  0  0  0
 24 25  2  6  0  0  0
 24  9  1  0  0  0  0
 24 26  1  0  0  0  0
 27 28  1  0  0  0  0
 27 24  1  0  0  0  0
 29 30  1  6  0  0  0
 29 28  1  0  0  0  0
 31 32  1  1  0  0  0
 31 29  1  0  0  0  0
 33 34  1  1  0  0  0
 33 35  1  0  0  0  0
 33 31  1  0  0  0  0
 35 36  1  6  0  0  0
 35 30  1  0  0  0  0
 36 37  1  0  0  0  0
 38 37  2  0  0  0  0
 39 38  1  0  0  0  0
 40 41  2  0  0  0  0
 40 39  1  0  0  0  0
 42 40  1  0  0  0  0
 43 42  2  0  0  0  0
 43 45  1  0  0  0  0
 44 43  1  0  0  0  0
 45 46  1  0  0  0  0
 46 39  2  0  0  0  0
 46 36  1  0  0  0  0
M  END
>  <CHROM.1>
-0.88356322,10.92017164,157.58011385,43.59021318,144.24489035,-2.14559268
0.19398153,-2.12091968

>  <Name>
lig.pdb

>  <RI>
0

>  <Rbt.Current_Directory>
/home/itssahil/PROJECTS/Mol_Feturizer/New_Systems/rnas/4yb0

>  <Rbt.Executable>
rbdock ($Id: //depot/dev/client3/rdock/2013.1/src/exe/rbdock.cxx#4 $)

>  <Rbt.Library>
libRbt.so (2013.1, Build901 2013/11/27)

>  <Rbt.Parameter_File>
/export/apps/rDock/src/rDock_2013.1_src/data/scripts/dock_solv.prm

>  <Rbt.Receptor>
prm/pocket_docking_3.prm

>  <SCORE>
-50.6047

>  <SCORE.INTER>
-50.6319

>  <SCORE.INTER.CONST>
1

>  <SCORE.INTER.POLAR>
0

>  <SCORE.INTER.ROT>
2

>  <SCORE.INTER.SOLV>
29.0109

>  <SCORE.INTER.VDW>
-48.3582

>  <SCORE.INTER.norm>
-1.10069

>  <SCORE.INTRA>
0.0272098

>  <SCORE.INTRA.DIHEDRAL>
0.0909146

>  <SCORE.INTRA.DIHEDRAL.0>
4.74153

>  <SCORE.INTRA.POLAR>
0

>  <SCORE.INTRA.POLAR.0>
0

>  <SCORE.INTRA.REPUL>
0

>  <SCORE.INTRA.REPUL.0>
0

>  <SCORE.INTRA.SOLV>
0.112688

>  <SCORE.INTRA.SOLV.lig_0>
-60.4375

>  <SCORE.INTRA.VDW>
-0.0745917

>  <SCORE.INTRA.VDW.0>
-1.83689

>  <SCORE.INTRA.norm>
0.000591518

>  <SCORE.RESTR>
0

>  <SCORE.RESTR.CAVITY>
0

>  <SCORE.RESTR.norm>
0

>  <SCORE.SYSTEM>
0

>  <SCORE.SYSTEM.CONST>
0

>  <SCORE.SYSTEM.DIHEDRAL>
0

>  <SCORE.SYSTEM.SOLV>
0

>  <SCORE.SYSTEM.norm>
0

>  <SCORE.heavy>
46

>  <SCORE.norm>
-1.1001

>  <RMSD>
0.486

$$$$
lig.pdb
 OpenBabel11021811523D
libRbt.so/2013.1/901 2013/11/27
 46 52  0  0  0  0  0  0  0  0999 V2000
  159.6307   46.2748  143.4522 P   0  0  2  0  0  0  0  0  0  0  0  0
  160.2595   47.6198  143.7442 O   0  0  0  0  0  0  0  0  0  0  0  0
  159.1570   46.0404  142.0409 O   0  0  0  0  0  0  0  0  0  0  0  0
  158.4083   45.9717  144.4517 O   0  0  0  0  0  0  0  0  0  0  0  0
  158.1486   46.7953  145.5809 C   0  0  0  0  0  0  0  0  0  0  0  0
  157.2187   46.0774  146.5452 C   0  0  1  0  0  0  0  0  0  0  0  0
  155.9186   46.6299  146.3955 O   0  0  0  0  0  0  0  0  0  0  0  0
  157.0717   44.5771  146.3258 C   0  0  1  0  0  0  0  0  0  0  0  0
  157.8239   43.8750  147.3046 O   0  0  0  0  0  0  0  0  0  0  0  0
  155.6045   44.3243  146.5907 C   0  0  1  0  0  0  0  0  0  0  0  0
  155.4107   44.0295  147.9754 O   0  0  0  0  0  0  0  0  0  0  0  0
  154.9138   45.6300  146.3229 C   0  0  2  0  0  0  0  0  0  0  0  0
  154.3591   45.6143  144.9486 N   0  0  0  0  0  0  0  0  0  0  0  0
  154.9796   46.0738  143.8480 C   0  0  0  0  0  0  0  0  0  0  0  0
  154.1901   45.9241  142.7574 N   0  0  0  0  0  0  0  0  0  0  0  0
  153.0360   45.3582  143.1531 C   0  0  0  0  0  0  0  0  0  0  0  0
  151.7760   44.9264  142.5034 C   0  0  0  0  0  0  0  0  0  0  0  0
  151.6168   45.0784  141.2683 O   0  0  0  0  0  0  0  0  0  0  0  0
  150.8258   44.3770  143.2791 N   0  0  0  0  0  0  0  0  0  0  0  0
  151.0010   44.2175  144.6046 C   0  0  0  0  0  0  0  0  0  0  0  0
  150.0126   43.6542  145.3347 N   0  0  0  0  0  0  0  0  0  0  0  0
  152.1241   44.5891  145.2598 N   0  0  0  0  0  0  0  0  0  0  0  0
  153.1572   45.1554  144.6001 C   0  0  0  0  0  0  0  0  0  0  0  0
  158.1262   42.2819  147.2236 P   0  0  2  0  0  0  0  0  0  0  0  0
  156.8366   41.5459  146.9525 O   0  0  0  0  0  0  0  0  0  0  0  0
  158.9711   41.9526  148.4400 O   0  0  0  0  0  0  0  0  0  0  0  0
  159.0364   42.1695  145.8939 O   0  0  0  0  0  0  0  0  0  0  0  0
  160.4265   42.4872  145.9492 C   0  0  0  0  0  0  0  0  0  0  0  0
  161.0331   42.7808  144.5736 C   0  0  1  0  0  0  0  0  0  0  0  0
  161.1686   41.5581  143.8460 O   0  0  0  0  0  0  0  0  0  0  0  0
  160.2187   43.7291  143.6964 C   0  0  1  0  0  0  0  0  0  0  0  0
  160.6545   45.0828  143.8132 O   0  0  0  0  0  0  0  0  0  0  0  0
  160.4724   43.1796  142.3050 C   0  0  1  0  0  0  0  0  0  0  0  0
  161.6630   43.7410  141.7456 O   0  0  0  0  0  0  0  0  0  0  0  0
  160.7157   41.6972  142.4967 C   0  0  2  0  0  0  0  0  0  0  0  0
  159.4363   40.9608  142.3442 N   0  0  0  0  0  0  0  0  0  0  0  0
  158.9382   40.0614  143.2157 C   0  0  0  0  0  0  0  0  0  0  0  0
  157.7383   39.5660  142.8034 N   0  0  0  0  0  0  0  0  0  0  0  0
  157.4437   40.1625  141.6374 C   0  0  0  0  0  0  0  0  0  0  0  0
  156.3359   40.0962  140.6505 C   0  0  0  0  0  0  0  0  0  0  0  0
  155.3395   39.3592  140.8115 O   0  0  0  0  0  0  0  0  0  0  0  0
  156.4224   40.8804  139.5747 N   0  0  0  0  0  0  0  0  0  0  0  0
  157.4681   41.6934  139.3592 C   0  0  0  0  0  0  0  0  0  0  0  0
  157.4584   42.4279  138.2369 N   0  0  0  0  0  0  0  0  0  0  0  0
  158.5186   41.8032  140.2058 N   0  0  0  0  0  0  0  0  0  0  0  0
  158.5656   41.0761  141.3418 C   0  0  0  0  0  0  0  0  0  0  0  0
  1  3  2  6  0  0  0
  1 32  1  0  0  0  0
  1  2  1  0  0  0  0
  1  4  1  0  0  0  0
  4  5  1  0  0  0  0
  6  5  1  6  0  0  0
  7  6  1  0  0  0  0
  8  6  1  0  0  0  0
  8 10  1  0  0  0  0
  8  9  1  1  0  0  0
 10 11  1  1  0  0  0
 12 13  1  6  0  0  0
 12  7  1  0  0  0  0
 12 10  1  0  0  0  0
 14 13  1  0  0  0  0
 15 16  1  0  0  0  0
 15 14  2  0  0  0  0
 16 23  2  0  0  0  0
 17 16  1  0  0  0  0
 17 19  1  0  0  0  0
 18 17  2  0  0  0  0
 19 20  2  0  0  0  0
 20 22  1  0  0  0  0
 20 21  1  0  0  0  0
 23 13  1  0  0  0  0
 23 22  1  0  0  0  0
 24 25  2  6  0  0  0
 24  9  1  0  0  0  0
 24 26  1  0  0  0  0
 27 28  1  0  0  0  0
 27 24  1  0  0  0  0
 29 30  1  6  0  0  0
 29 28  1  0  0  0  0
 31 32  1  6  0  0  0
 31 29  1  0  0  0  0
 33 34  1  1  0  0  0
 33 35  1  0  0  0  0
 33 31  1  0  0  0  0
 35 36  1  1  0  0  0
 35 30  1  0  0  0  0
 36 37  1  0  0  0  0
 38 37  2  0  0  0  0
 39 38  1  0  0  0  0
 40 41  2  0  0  0  0
 40 39  1  0  0  0  0
 42 40  1  0  0  0  0
 43 42  2  0  0  0  0
 43 45  1  0  0  0  0
 44 43  1  0  0  0  0
 45 46  1  0  0  0  0
 46 39  2  0  0  0  0
 46 36  1  0  0  0  0
M  END
>  <CHROM.1>
22.37989863,-14.19101816,157.12116114,43.60986533,143.94820758,-0.32252132
-0.16307217,1.01381534

>  <Name>
lig.pdb

>  <RI>
0

>  <Rbt.Current_Directory>
/home/itssahil/PROJECTS/Mol_Feturizer/New_Systems/rnas/4yb0

>  <Rbt.Executable>
rbdock ($Id: //depot/dev/client3/rdock/2013.1/src/exe/rbdock.cxx#4 $)

>  <Rbt.Library>
libRbt.so (2013.1, Build901 2013/11/27)

>  <Rbt.Parameter_File>
/export/apps/rDock/src/rDock_2013.1_src/data/scripts/dock_solv.prm

>  <Rbt.Receptor>
prm/pocket_docking_2.prm

>  <SCORE>
-53.5898

>  <SCORE.INTER>
-53.4925

>  <SCORE.INTER.CONST>
1

>  <SCORE.INTER.POLAR>
0

>  <SCORE.INTER.ROT>
2

>  <SCORE.INTER.SOLV>
30.8846

>  <SCORE.INTER.VDW>
-50.8898

>  <SCORE.INTER.norm>
-1.16288

>  <SCORE.INTRA>
-0.0973707

>  <SCORE.INTRA.DIHEDRAL>
-0.025856

>  <SCORE.INTRA.DIHEDRAL.0>
4.74153

>  <SCORE.INTRA.POLAR>
0

>  <SCORE.INTRA.POLAR.0>
0

>  <SCORE.INTRA.REPUL>
0

>  <SCORE.INTRA.REPUL.0>
0

>  <SCORE.INTRA.SOLV>
-0.00540271

>  <SCORE.INTRA.SOLV.lig_0>
-60.4375

>  <SCORE.INTRA.VDW>
-0.0817413

>  <SCORE.INTRA.VDW.0>
-1.83689

>  <SCORE.INTRA.norm>
-0.00211675

>  <SCORE.RESTR>
0

>  <SCORE.RESTR.CAVITY>
0

>  <SCORE.RESTR.norm>
0

>  <SCORE.SYSTEM>
0

>  <SCORE.SYSTEM.CONST>
0

>  <SCORE.SYSTEM.DIHEDRAL>
0

>  <SCORE.SYSTEM.SOLV>
0

>  <SCORE.SYSTEM.norm>
0

>  <SCORE.heavy>
46

>  <SCORE.norm>
-1.165

>  <RMSD>
0.487

$$$$
lig.pdb
 OpenBabel11021811523D
libRbt.so/2013.1/901 2013/11/27
 46 52  0  0  0  0  0  0  0  0999 V2000
  159.6457   46.2483  143.4056 P   0  0  2  0  0  0  0  0  0  0  0  0
  160.2862   47.5897  143.6886 O   0  0  0  0  0  0  0  0  0  0  0  0
  159.1602   46.0127  141.9985 O   0  0  0  0  0  0  0  0  0  0  0  0
  158.4285   45.9572  144.4149 O   0  0  0  0  0  0  0  0  0  0  0  0
  158.1828   46.7863  145.5433 C   0  0  0  0  0  0  0  0  0  0  0  0
  157.2549   46.0782  146.5166 C   0  0  1  0  0  0  0  0  0  0  0  0
  155.9577   46.6394  146.3745 O   0  0  0  0  0  0  0  0  0  0  0  0
  157.0957   44.5782  146.3032 C   0  0  1  0  0  0  0  0  0  0  0  0
  157.8499   43.8740  147.2789 O   0  0  0  0  0  0  0  0  0  0  0  0
  155.6286   44.3368  146.5795 C   0  0  1  0  0  0  0  0  0  0  0  0
  155.4429   44.0478  147.9666 O   0  0  0  0  0  0  0  0  0  0  0  0
  154.9454   45.6465  146.3125 C   0  0  2  0  0  0  0  0  0  0  0  0
  154.3806   45.6303  144.9422 N   0  0  0  0  0  0  0  0  0  0  0  0
  154.9921   46.0914  143.8373 C   0  0  0  0  0  0  0  0  0  0  0  0
  154.1949   45.9406  142.7525 N   0  0  0  0  0  0  0  0  0  0  0  0
  153.0448   45.3724  143.1564 C   0  0  0  0  0  0  0  0  0  0  0  0
  151.7809   44.9386  142.5159 C   0  0  0  0  0  0  0  0  0  0  0  0
  151.6123   45.0908  141.2820 O   0  0  0  0  0  0  0  0  0  0  0  0
  150.8374   44.3871  143.2983 N   0  0  0  0  0  0  0  0  0  0  0  0
  151.0227   44.2274  144.6224 C   0  0  0  0  0  0  0  0  0  0  0  0
  150.0407   43.6620  145.3595 N   0  0  0  0  0  0  0  0  0  0  0  0
  152.1499   44.6009  145.2695 N   0  0  0  0  0  0  0  0  0  0  0  0
  153.1770   45.1693  144.6025 C   0  0  0  0  0  0  0  0  0  0  0  0
  158.1403   42.2785  147.2009 P   0  0  2  0  0  0  0  0  0  0  0  0
  156.8436   41.5508  146.9415 O   0  0  0  0  0  0  0  0  0  0  0  0
  158.9917   41.9471  148.4122 O   0  0  0  0  0  0  0  0  0  0  0  0
  159.0400   42.1554  145.8650 O   0  0  0  0  0  0  0  0  0  0  0  0
  160.4327   42.4633  145.9093 C   0  0  0  0  0  0  0  0  0  0  0  0
  161.0314   42.7481  144.5283 C   0  0  1  0  0  0  0  0  0  0  0  0
  161.1529   41.5221  143.8038 O   0  0  0  0  0  0  0  0  0  0  0  0
  160.2174   43.6993  143.6539 C   0  0  1  0  0  0  0  0  0  0  0  0
  160.6637   45.0503  143.7631 O   0  0  0  0  0  0  0  0  0  0  0  0
  160.4570   43.1435  142.2626 C   0  0  1  0  0  0  0  0  0  0  0  0
  161.6475   43.6946  141.6927 O   0  0  0  0  0  0  0  0  0  0  0  0
  160.6912   41.6601  142.4573 C   0  0  2  0  0  0  0  0  0  0  0  0
  159.4056   40.9324  142.3166 N   0  0  0  0  0  0  0  0  0  0  0  0
  158.8830   40.0779  143.2184 C   0  0  0  0  0  0  0  0  0  0  0  0
  157.6838   39.5785  142.8088 N   0  0  0  0  0  0  0  0  0  0  0  0
  157.4148   40.1265  141.6132 C   0  0  0  0  0  0  0  0  0  0  0  0
  156.3219   40.0295  140.6123 C   0  0  0  0  0  0  0  0  0  0  0  0
  155.3141   39.3117  140.7892 O   0  0  0  0  0  0  0  0  0  0  0  0
  156.4346   40.7646  139.5047 N   0  0  0  0  0  0  0  0  0  0  0  0
  157.4934   41.5554  139.2709 C   0  0  0  0  0  0  0  0  0  0  0  0
  157.5102   42.2399  138.1174 N   0  0  0  0  0  0  0  0  0  0  0  0
  158.5317   41.6903  140.1287 N   0  0  0  0  0  0  0  0  0  0  0  0
  158.5521   41.0134  141.2961 C   0  0  0  0  0  0  0  0  0  0  0  0
  1  3  2  6  0  0  0
  1 32  1  0  0  0  0
  1  2  1  0  0  0  0
  1  4  1  0  0  0  0
  4  5  1  0  0  0  0
  6  5  1  6  0  0  0
  7  6  1  0  0  0  0
  8  6  1  0  0  0  0
  8 10  1  0  0  0  0
  8  9  1  1  0  0  0
 10 11  1  1  0  0  0
 12 13  1  6  0  0  0
 12  7  1  0  0  0  0
 12 10  1  0  0  0  0
 14 13  1  0  0  0  0
 15 16  1  0  0  0  0
 15 14  2  0  0  0  0
 16 23  2  0  0  0  0
 17 16  1  0  0  0  0
 17 19  1  0  0  0  0
 18 17  2  0  0  0  0
 19 20  2  0  0  0  0
 20 22  1  0  0  0  0
 20 21  1  0  0  0  0
 23 13  1  0  0  0  0
 23 22  1  0  0  0  0
 24 25  2  6  0  0  0
 24  9  1  0  0  0  0
 24 26  1  0  0  0  0
 27 28  1  0  0  0  0
 27 24  1  0  0  0  0
 29 30  1  6  0  0  0
 29 28  1  0  0  0  0
 31 32  1  6  0  0  0
 31 29  1  0  0  0  0
 33 34  1  1  0  0  0
 33 35  1  0  0  0  0
 33 31  1  0  0  0  0
 35 36  1  1  0  0  0
 35 30  1  0  0  0  0
 36 37  1  0  0  0  0
 38 37  2  0  0  0  0
 39 38  1  0  0  0  0
 40 41  2  0  0  0  0
 40 39  1  0  0  0  0
 42 40  1  0  0  0  0
 43 42  2  0  0  0  0
 43 45  1  0  0  0  0
 44 43  1  0  0  0  0
 45 46  1  0  0  0  0
 46 39  2  0  0  0  0
 46 36  1  0  0  0  0
M  END
>  <CHROM.1>
21.82426540,-11.49703971,157.12901699,43.58944011,143.92107676,-0.35469377
-0.16132334,1.00363930

>  <Name>
lig.pdb

>  <RI>
0

>  <Rbt.Current_Directory>
/home/itssahil/PROJECTS/Mol_Feturizer/New_Systems/rnas/4yb0

>  <Rbt.Executable>
rbdock ($Id: //depot/dev/client3/rdock/2013.1/src/exe/rbdock.cxx#4 $)

>  <Rbt.Library>
libRbt.so (2013.1, Build901 2013/11/27)

>  <Rbt.Parameter_File>
/export/apps/rDock/src/rDock_2013.1_src/data/scripts/dock_solv.prm

>  <Rbt.Receptor>
prm/pocket_docking_4.prm

>  <SCORE>
-53.6248

>  <SCORE.INTER>
-53.518

>  <SCORE.INTER.CONST>
1

>  <SCORE.INTER.POLAR>
0

>  <SCORE.INTER.ROT>
2

>  <SCORE.INTER.SOLV>
31.1454

>  <SCORE.INTER.VDW>
-50.9938

>  <SCORE.INTER.norm>
-1.16344

>  <SCORE.INTRA>
-0.106796

>  <SCORE.INTRA.DIHEDRAL>
-0.0188553

>  <SCORE.INTRA.DIHEDRAL.0>
4.74153

>  <SCORE.INTRA.POLAR>
0

>  <SCORE.INTRA.POLAR.0>
0

>  <SCORE.INTRA.REPUL>
0

>  <SCORE.INTRA.REPUL.0>
0

>  <SCORE.INTRA.SOLV>
0.00155545

>  <SCORE.INTRA.SOLV.lig_0>
-60.4375

>  <SCORE.INTRA.VDW>
-0.0981458

>  <SCORE.INTRA.VDW.0>
-1.83689

>  <SCORE.INTRA.norm>
-0.00232165

>  <SCORE.RESTR>
0

>  <SCORE.RESTR.CAVITY>
0

>  <SCORE.RESTR.norm>
0

>  <SCORE.SYSTEM>
0

>  <SCORE.SYSTEM.CONST>
0

>  <SCORE.SYSTEM.DIHEDRAL>
0

>  <SCORE.SYSTEM.SOLV>
0

>  <SCORE.SYSTEM.norm>
0

>  <SCORE.heavy>
46

>  <SCORE.norm>
-1.16576

>  <RMSD>
0.487

$$$$
lig.pdb
 OpenBabel11021811523D
libRbt.so/2013.1/901 2013/11/27
 46 52  0  0  0  0  0  0  0  0999 V2000
  159.6450   46.2750  143.4107 P   0  0  2  0  0  0  0  0  0  0  0  0
  160.2816   47.6165  143.7013 O   0  0  0  0  0  0  0  0  0  0  0  0
  159.1614   46.0455  142.0019 O   0  0  0  0  0  0  0  0  0  0  0  0
  158.4276   45.9754  144.4172 O   0  0  0  0  0  0  0  0  0  0  0  0
  158.1786   46.7979  145.5497 C   0  0  0  0  0  0  0  0  0  0  0  0
  157.2516   46.0823  146.5184 C   0  0  1  0  0  0  0  0  0  0  0  0
  155.9530   46.6408  146.3779 O   0  0  0  0  0  0  0  0  0  0  0  0
  157.0965   44.5830  146.2970 C   0  0  1  0  0  0  0  0  0  0  0  0
  157.8516   43.8757  147.2697 O   0  0  0  0  0  0  0  0  0  0  0  0
  155.6298   44.3363  146.5706 C   0  0  1  0  0  0  0  0  0  0  0  0
  155.4434   44.0396  147.9559 O   0  0  0  0  0  0  0  0  0  0  0  0
  154.9434   45.6456  146.3097 C   0  0  2  0  0  0  0  0  0  0  0  0
  154.3799   45.6352  144.9389 N   0  0  0  0  0  0  0  0  0  0  0  0
  154.9910   46.1045  143.8371 C   0  0  0  0  0  0  0  0  0  0  0  0
  154.1954   45.9570  142.7507 N   0  0  0  0  0  0  0  0  0  0  0  0
  153.0468   45.3827  143.1503 C   0  0  0  0  0  0  0  0  0  0  0  0
  151.7850   44.9481  142.5061 C   0  0  0  0  0  0  0  0  0  0  0  0
  151.6171   45.1066  141.2730 O   0  0  0  0  0  0  0  0  0  0  0  0
  150.8426   44.3890  143.2845 N   0  0  0  0  0  0  0  0  0  0  0  0
  151.0272   44.2226  144.6079 C   0  0  0  0  0  0  0  0  0  0  0  0
  150.0464   43.6497  145.3409 N   0  0  0  0  0  0  0  0  0  0  0  0
  152.1525   44.5963  145.2581 N   0  0  0  0  0  0  0  0  0  0  0  0
  153.1783   45.1720  144.5953 C   0  0  0  0  0  0  0  0  0  0  0  0
  158.1462   42.2813  147.1837 P   0  0  2  0  0  0  0  0  0  0  0  0
  156.8517   41.5517  146.9191 O   0  0  0  0  0  0  0  0  0  0  0  0
  158.9973   41.9458  148.3940 O   0  0  0  0  0  0  0  0  0  0  0  0
  159.0476   42.1676  145.8480 O   0  0  0  0  0  0  0  0  0  0  0  0
  160.4394   42.4789  145.8953 C   0  0  0  0  0  0  0  0  0  0  0  0
  161.0387   42.7725  144.5164 C   0  0  1  0  0  0  0  0  0  0  0  0
  161.1641   41.5507  143.7856 O   0  0  0  0  0  0  0  0  0  0  0  0
  160.2230   43.7262  143.6462 C   0  0  1  0  0  0  0  0  0  0  0  0
  160.6657   45.0777  143.7629 O   0  0  0  0  0  0  0  0  0  0  0  0
  160.4655   43.1783  142.2522 C   0  0  1  0  0  0  0  0  0  0  0  0
  161.6551   43.7355  141.6864 O   0  0  0  0  0  0  0  0  0  0  0  0
  160.7033   41.6945  142.4394 C   0  0  2  0  0  0  0  0  0  0  0  0
  159.4198   40.9642  142.2936 N   0  0  0  0  0  0  0  0  0  0  0  0
  158.8906   40.1162  143.1977 C   0  0  0  0  0  0  0  0  0  0  0  0
  157.6954   39.6122  142.7820 N   0  0  0  0  0  0  0  0  0  0  0  0
  157.4359   40.1505  141.5798 C   0  0  0  0  0  0  0  0  0  0  0  0
  156.3516   40.0442  140.5705 C   0  0  0  0  0  0  0  0  0  0  0  0
  155.3432   39.3267  140.7446 O   0  0  0  0  0  0  0  0  0  0  0  0
  156.4730   40.7707  139.4581 N   0  0  0  0  0  0  0  0  0  0  0  0
  157.5327   41.5608  139.2269 C   0  0  0  0  0  0  0  0  0  0  0  0
  157.5586   42.2362  138.0683 N   0  0  0  0  0  0  0  0  0  0  0  0
  158.5636   41.7037  140.0925 N   0  0  0  0  0  0  0  0  0  0  0  0
  158.5749   41.0361  141.2653 C   0  0  0  0  0  0  0  0  0  0  0  0
  1  3  2  6  0  0  0
  1 32  1  0  0  0  0
  1  2  1  0  0  0  0
  1  4  1  0  0  0  0
  4  5  1  0  0  0  0
  6  5  1  6  0  0  0
  7  6  1  0  0  0  0
  8  6  1  0  0  0  0
  8 10  1  0  0  0  0
  8  9  1  1  0  0  0
 10 11  1  1  0  0  0
 12 13  1  6  0  0  0
 12  7  1  0  0  0  0
 12 10  1  0  0  0  0
 14 13  1  0  0  0  0
 15 16  1  0  0  0  0
 15 14  2  0  0  0  0
 16 23  2  0  0  0  0
 17 16  1  0  0  0  0
 17 19  1  0  0  0  0
 18 17  2  0  0  0  0
 19 20  2  0  0  0  0
 20 22  1  0  0  0  0
 20 21  1  0  0  0  0
 23 13  1  0  0  0  0
 23 22  1  0  0  0  0
 24 25  2  6  0  0  0
 24  9  1  0  0  0  0
 24 26  1  0  0  0  0
 27 28  1  0  0  0  0
 27 24  1  0  0  0  0
 29 30  1  6  0  0  0
 29 28  1  0  0  0  0
 31 32  1  6  0  0  0
 31 29  1  0  0  0  0
 33 34  1  1  0  0  0
 33 35  1  0  0  0  0
 33 31  1  0  0  0  0
 35 36  1  1  0  0  0
 35 30  1  0  0  0  0
 36 37  1  0  0  0  0
 38 37  2  0  0  0  0
 39 38  1  0  0  0  0
 40 41  2  0  0  0  0
 40 39  1  0  0  0  0
 42 40  1  0  0  0  0
 43 42  2  0  0  0  0
 43 45  1  0  0  0  0
 44 43  1  0  0  0  0
 45 46  1  0  0  0  0
 46 39  2  0  0  0  0
 46 36  1  0  0  0  0
M  END
>  <CHROM.1>
21.77483827,-10.62527309,157.13708222,43.60304673,143.90752908,-0.36025366
-0.15881706,1.00748660

>  <Name>
lig.pdb

>  <RI>
0

>  <Rbt.Current_Directory>
/home/itssahil/PROJECTS/Mol_Feturizer/New_Systems/rnas/4yb0

>  <Rbt.Executable>
rbdock ($Id: //depot/dev/client3/rdock/2013.1/src/exe/rbdock.cxx#4 $)

>  <Rbt.Library>
libRbt.so (2013.1, Build901 2013/11/27)

>  <Rbt.Parameter_File>
/export/apps/rDock/src/rDock_2013.1_src/data/scripts/dock_solv.prm

>  <Rbt.Receptor>
prm/pocket_docking_2.prm

>  <SCORE>
-53.5999

>  <SCORE.INTER>
-53.4902

>  <SCORE.INTER.CONST>
1

>  <SCORE.INTER.POLAR>
0

>  <SCORE.INTER.ROT>
2

>  <SCORE.INTER.SOLV>
31.1087

>  <SCORE.INTER.VDW>
-50.963

>  <SCORE.INTER.norm>
-1.16283

>  <SCORE.INTRA>
-0.109653

>  <SCORE.INTRA.DIHEDRAL>
-0.0165513

>  <SCORE.INTRA.DIHEDRAL.0>
4.74153

>  <SCORE.INTRA.POLAR>
0

>  <SCORE.INTRA.POLAR.0>
0

>  <SCORE.INTRA.REPUL>
0

>  <SCORE.INTRA.REPUL.0>
0

>  <SCORE.INTRA.SOLV>
0.00518729

>  <SCORE.INTRA.SOLV.lig_0>
-60.4375

>  <SCORE.INTRA.VDW>
-0.103971

>  <SCORE.INTRA.VDW.0>
-1.83689

>  <SCORE.INTRA.norm>
-0.00238377

>  <SCORE.RESTR>
0

>  <SCORE.RESTR.CAVITY>
0

>  <SCORE.RESTR.norm>
0

>  <SCORE.SYSTEM>
0

>  <SCORE.SYSTEM.CONST>
0

>  <SCORE.SYSTEM.DIHEDRAL>
0

>  <SCORE.SYSTEM.SOLV>
0

>  <SCORE.SYSTEM.norm>
0

>  <SCORE.heavy>
46

>  <SCORE.norm>
-1.16521

>  <RMSD>
0.488

$$$$
lig.pdb
 OpenBabel11021811523D
libRbt.so/2013.1/901 2013/11/27
 46 52  0  0  0  0  0  0  0  0999 V2000
  158.6050   42.1052  147.5242 P   0  0  2  0  0  0  0  0  0  0  0  0
  159.4993   41.3828  148.5081 O   0  0  0  0  0  0  0  0  0  0  0  0
  157.2046   41.5722  147.3637 O   0  0  0  0  0  0  0  0  0  0  0  0
  159.2837   42.1874  146.0689 O   0  0  0  0  0  0  0  0  0  0  0  0
  160.6386   41.8126  145.8573 C   0  0  0  0  0  0  0  0  0  0  0  0
  161.1241   42.3502  144.5213 C   0  0  1  0  0  0  0  0  0  0  0  0
  161.1420   41.2736  143.5946 O   0  0  0  0  0  0  0  0  0  0  0  0
  160.2603   43.4373  143.8946 C   0  0  1  0  0  0  0  0  0  0  0  0
  160.8822   44.7019  144.0693 O   0  0  0  0  0  0  0  0  0  0  0  0
  160.2855   43.1012  142.4204 C   0  0  1  0  0  0  0  0  0  0  0  0
  161.3842   43.7675  141.7951 O   0  0  0  0  0  0  0  0  0  0  0  0
  160.5695   41.6291  142.3454 C   0  0  2  0  0  0  0  0  0  0  0  0
  159.2924   40.8946  142.1831 N   0  0  0  0  0  0  0  0  0  0  0  0
  158.7691   40.0282  143.0679 C   0  0  0  0  0  0  0  0  0  0  0  0
  157.6007   39.5216  142.6059 N   0  0  0  0  0  0  0  0  0  0  0  0
  157.3584   40.0660  141.4002 C   0  0  0  0  0  0  0  0  0  0  0  0
  156.2960   39.9640  140.3721 C   0  0  0  0  0  0  0  0  0  0  0  0
  155.3154   39.2018  140.5493 O   0  0  0  0  0  0  0  0  0  0  0  0
  156.4253   40.7071  139.2596 N   0  0  0  0  0  0  0  0  0  0  0  0
  157.4805   41.5225  139.0736 C   0  0  0  0  0  0  0  0  0  0  0  0
  157.5559   42.2503  137.9370 N   0  0  0  0  0  0  0  0  0  0  0  0
  158.4837   41.6624  139.9697 N   0  0  0  0  0  0  0  0  0  0  0  0
  158.4789   40.9723  141.1302 C   0  0  0  0  0  0  0  0  0  0  0  0
  160.1328   46.1123  143.7772 P   0  0  2  0  0  0  0  0  0  0  0  0
  159.4782   46.0537  142.4185 O   0  0  0  0  0  0  0  0  0  0  0  0
  161.1373   47.1988  144.1128 O   0  0  0  0  0  0  0  0  0  0  0  0
  158.9547   46.1136  144.8824 O   0  0  0  0  0  0  0  0  0  0  0  0
  159.2396   46.4803  146.2318 C   0  0  0  0  0  0  0  0  0  0  0  0
  158.1771   45.9986  147.2246 C   0  0  1  0  0  0  0  0  0  0  0  0
  156.9988   46.7944  147.0790 O   0  0  0  0  0  0  0  0  0  0  0  0
  157.7498   44.5419  147.0590 C   0  0  1  0  0  0  0  0  0  0  0  0
  158.4774   43.6637  147.9165 O   0  0  0  0  0  0  0  0  0  0  0  0
  156.2795   44.5927  147.4305 C   0  0  1  0  0  0  0  0  0  0  0  0
  156.1063   44.4463  148.8427 O   0  0  0  0  0  0  0  0  0  0  0  0
  155.8190   45.9866  147.0584 C   0  0  2  0  0  0  0  0  0  0  0  0
  155.2713   45.9763  145.6792 N   0  0  0  0  0  0  0  0  0  0  0  0
  155.8870   46.4669  144.5852 C   0  0  0  0  0  0  0  0  0  0  0  0
  155.1355   46.2987  143.4617 N   0  0  0  0  0  0  0  0  0  0  0  0
  154.0047   45.6769  143.8317 C   0  0  0  0  0  0  0  0  0  0  0  0
  152.7702   45.2064  143.1533 C   0  0  0  0  0  0  0  0  0  0  0  0
  152.5950   45.3292  141.9219 O   0  0  0  0  0  0  0  0  0  0  0  0
  151.8422   44.6132  143.9061 N   0  0  0  0  0  0  0  0  0  0  0  0
  151.9856   44.4519  145.2306 C   0  0  0  0  0  0  0  0  0  0  0  0
  150.9834   43.8543  145.8921 N   0  0  0  0  0  0  0  0  0  0  0  0
  153.0755   44.8608  145.9214 N   0  0  0  0  0  0  0  0  0  0  0  0
  154.1011   45.4704  145.2907 C   0  0  0  0  0  0  0  0  0  0  0  0
  1  3  2  6  0  0  0
  1 32  1  0  0  0  0
  1  2  1  0  0  0  0
  1  4  1  0  0  0  0
  4  5  1  0  0  0  0
  6  5  1  1  0  0  0
  7  6  1  0  0  0  0
  8  6  1  0  0  0  0
  8 10  1  0  0  0  0
  8  9  1  6  0  0  0
 10 11  1  6  0  0  0
 12 13  1  1  0  0  0
 12  7  1  0  0  0  0
 12 10  1  0  0  0  0
 14 13  1  0  0  0  0
 15 16  1  0  0  0  0
 15 14  2  0  0  0  0
 16 23  2  0  0  0  0
 17 16  1  0  0  0  0
 17 19  1  0  0  0  0
 18 17  2  0  0  0  0
 19 20  2  0  0  0  0
 20 22  1  0  0  0  0
 20 21  1  0  0  0  0
 23 13  1  0  0  0  0
 23 22  1  0  0  0  0
 24 25  2  6  0  0  0
 24  9  1  0  0  0  0
 24 26  1  0  0  0  0
 27 28  1  0  0  0  0
 27 24  1  0  0  0  0
 29 30  1  6  0  0  0
 29 28  1  0  0  0  0
 31 32  1  1  0  0  0
 31 29  1  0  0  0  0
 33 34  1  1  0  0  0
 33 35  1  0  0  0  0
 33 31  1  0  0  0  0
 35 36  1  6  0  0  0
 35 30  1  0  0  0  0
 36 37  1  0  0  0  0
 38 37  2  0  0  0  0
 39 38  1  0  0  0  0
 40 41  2  0  0  0  0
 40 39  1  0  0  0  0
 42 40  1  0  0  0  0
 43 42  2  0  0  0  0
 43 45  1  0  0  0  0
 44 43  1  0  0  0  0
 45 46  1  0  0  0  0
 46 39  2  0  0  0  0
 46 36  1  0  0  0  0
M  END
>  <CHROM.1>
-0.46329681,9.52139851,157.56968543,43.58003661,144.23464812,-2.11831110
0.18980666,-2.12049819

>  <Name>
lig.pdb

>  <RI>
0

>  <Rbt.Current_Directory>
/home/itssahil/PROJECTS/Mol_Feturizer/New_Systems/rnas/4yb0

>  <Rbt.Executable>
rbdock ($Id: //depot/dev/client3/rdock/2013.1/src/exe/rbdock.cxx#4 $)

>  <Rbt.Library>
libRbt.so (2013.1, Build901 2013/11/27)

>  <Rbt.Parameter_File>
/export/apps/rDock/src/rDock_2013.1_src/data/scripts/dock_solv.prm

>  <Rbt.Receptor>
prm/pocket_docking_3.prm

>  <SCORE>
-50.5011

>  <SCORE.INTER>
-50.5268

>  <SCORE.INTER.CONST>
1

>  <SCORE.INTER.POLAR>
0

>  <SCORE.INTER.ROT>
2

>  <SCORE.INTER.SOLV>
29.0378

>  <SCORE.INTER.VDW>
-48.2971

>  <SCORE.INTER.norm>
-1.09841

>  <SCORE.INTRA>
0.025737

>  <SCORE.INTRA.DIHEDRAL>
0.0860646

>  <SCORE.INTRA.DIHEDRAL.0>
4.74153

>  <SCORE.INTRA.POLAR>
0

>  <SCORE.INTRA.POLAR.0>
0

>  <SCORE.INTRA.REPUL>
0

>  <SCORE.INTRA.REPUL.0>
0

>  <SCORE.INTRA.SOLV>
0.10932

>  <SCORE.INTRA.SOLV.lig_0>
-60.4375

>  <SCORE.INTRA.VDW>
-0.0719554

>  <SCORE.INTRA.VDW.0>
-1.83689

>  <SCORE.INTRA.norm>
0.000559501

>  <SCORE.RESTR>
0

>  <SCORE.RESTR.CAVITY>
0

>  <SCORE.RESTR.norm>
0

>  <SCORE.SYSTEM>
0

>  <SCORE.SYSTEM.CONST>
0

>  <SCORE.SYSTEM.DIHEDRAL>
0

>  <SCORE.SYSTEM.SOLV>
0

>  <SCORE.SYSTEM.norm>
0

>  <SCORE.heavy>
46

>  <SCORE.norm>
-1.09785

>  <RMSD>
0.488

$$$$
lig.pdb
 OpenBabel11021811523D
libRbt.so/2013.1/901 2013/11/27
 46 52  0  0  0  0  0  0  0  0999 V2000
  159.6858   46.1558  143.4863 P   0  0  2  0  0  0  0  0  0  0  0  0
  160.3572   47.4738  143.8053 O   0  0  0  0  0  0  0  0  0  0  0  0
  159.2126   45.9620  142.0687 O   0  0  0  0  0  0  0  0  0  0  0  0
  158.4484   45.8760  144.4741 O   0  0  0  0  0  0  0  0  0  0  0  0
  158.2097   46.6879  145.6164 C   0  0  0  0  0  0  0  0  0  0  0  0
  157.2512   45.9845  146.5631 C   0  0  1  0  0  0  0  0  0  0  0  0
  155.9709   46.5825  146.4166 O   0  0  0  0  0  0  0  0  0  0  0  0
  157.0558   44.4940  146.3165 C   0  0  1  0  0  0  0  0  0  0  0  0
  157.7787   43.7503  147.2865 O   0  0  0  0  0  0  0  0  0  0  0  0
  155.5794   44.2856  146.5694 C   0  0  1  0  0  0  0  0  0  0  0  0
  155.3682   43.9731  147.9477 O   0  0  0  0  0  0  0  0  0  0  0  0
  154.9340   45.6179  146.3213 C   0  0  2  0  0  0  0  0  0  0  0  0
  154.3868   45.6448  144.9441 N   0  0  0  0  0  0  0  0  0  0  0  0
  155.0055   46.1552  143.8651 C   0  0  0  0  0  0  0  0  0  0  0  0
  154.2243   46.0337  142.7650 N   0  0  0  0  0  0  0  0  0  0  0  0
  153.0776   45.4348  143.1325 C   0  0  0  0  0  0  0  0  0  0  0  0
  151.8283   45.0073  142.4598 C   0  0  0  0  0  0  0  0  0  0  0  0
  151.6731   45.2029  141.2303 O   0  0  0  0  0  0  0  0  0  0  0  0
  150.8831   44.4140  143.2088 N   0  0  0  0  0  0  0  0  0  0  0  0
  151.0539   44.2077  144.5284 C   0  0  0  0  0  0  0  0  0  0  0  0
  150.0710   43.6016  145.2311 N   0  0  0  0  0  0  0  0  0  0  0  0
  152.1673   44.5727  145.2036 N   0  0  0  0  0  0  0  0  0  0  0  0
  153.1945   45.1799  144.5717 C   0  0  0  0  0  0  0  0  0  0  0  0
  158.0284   42.1496  147.1789 P   0  0  2  0  0  0  0  0  0  0  0  0
  156.7167   41.4618  146.8882 O   0  0  0  0  0  0  0  0  0  0  0  0
  158.8551   41.7711  148.3934 O   0  0  0  0  0  0  0  0  0  0  0  0
  158.9420   42.0304  145.8520 O   0  0  0  0  0  0  0  0  0  0  0  0
  160.3415   42.3006  145.9200 C   0  0  0  0  0  0  0  0  0  0  0  0
  160.9652   42.5980  144.5528 C   0  0  1  0  0  0  0  0  0  0  0  0
  161.0642   41.3844  143.8045 O   0  0  0  0  0  0  0  0  0  0  0  0
  160.1877   43.5881  143.6884 C   0  0  1  0  0  0  0  0  0  0  0  0
  160.6675   44.9243  143.8314 O   0  0  0  0  0  0  0  0  0  0  0  0
  160.4309   43.0549  142.2889 C   0  0  1  0  0  0  0  0  0  0  0  0
  161.6426   43.5861  141.7455 O   0  0  0  0  0  0  0  0  0  0  0  0
  160.6238   41.5621  142.4555 C   0  0  2  0  0  0  0  0  0  0  0  0
  159.3217   40.8715  142.2836 N   0  0  0  0  0  0  0  0  0  0  0  0
  158.7573   40.0259  143.1685 C   0  0  0  0  0  0  0  0  0  0  0  0
  157.5533   39.5629  142.7312 N   0  0  0  0  0  0  0  0  0  0  0  0
  157.3241   40.1261  141.5343 C   0  0  0  0  0  0  0  0  0  0  0  0
  156.2495   40.0662  140.5108 C   0  0  0  0  0  0  0  0  0  0  0  0
  155.2189   39.3757  140.6622 O   0  0  0  0  0  0  0  0  0  0  0  0
  156.4052   40.8052  139.4111 N   0  0  0  0  0  0  0  0  0  0  0  0
  157.4900   41.5677  139.2044 C   0  0  0  0  0  0  0  0  0  0  0  0
  157.5494   42.2591  138.0565 N   0  0  0  0  0  0  0  0  0  0  0  0
  158.5140   41.6679  140.0840 N   0  0  0  0  0  0  0  0  0  0  0  0
  158.4918   40.9830  141.2467 C   0  0  0  0  0  0  0  0  0  0  0  0
  1  3  2  6  0  0  0
  1 32  1  0  0  0  0
  1  2  1  0  0  0  0
  1  4  1  0  0  0  0
  4  5  1  0  0  0  0
  6  5  1  6  0  0  0
  7  6  1  0  0  0  0
  8  6  1  0  0  0  0
  8 10  1  0  0  0  0
  8  9  1  1  0  0  0
 10 11  1  1  0  0  0
 12 13  1  6  0  0  0
 12  7  1  0  0  0  0
 12 10  1  0  0  0  0
 14 13  1  0  0  0  0
 15 16  1  0  0  0  0
 15 14  2  0  0  0  0
 16 23  2  0  0  0  0
 17 16  1  0  0  0  0
 17 19  1  0  0  0  0
 18 17  2  0  0  0  0
 19 20  2  0  0  0  0
 20 22  1  0  0  0  0
 20 21  1  0  0  0  0
 23 13  1  0  0  0  0
 23 22  1  0  0  0  0
 24 25  2  6  0  0  0
 24  9  1  0  0  0  0
 24 26  1  0  0  0  0
 27 28  1  0  0  0  0
 27 24  1  0  0  0  0
 29 30  1  6  0  0  0
 29 28  1  0  0  0  0
 31 32  1  6  0  0  0
 31 29  1  0  0  0  0
 33 34  1  1  0  0  0
 33 35  1  0  0  0  0
 33 31  1  0  0  0  0
 35 36  1  1  0  0  0
 35 30  1  0  0  0  0
 36 37  1  0  0  0  0
 38 37  2  0  0  0  0
 39 38  1  0  0  0  0
 40 41  2  0  0  0  0
 40 39  1  0  0  0  0
 42 40  1  0  0  0  0
 43 42  2  0  0  0  0
 43 45  1  0  0  0  0
 44 43  1  0  0  0  0
 45 46  1  0  0  0  0
 46 39  2  0  0  0  0
 46 36  1  0  0  0  0
M  END
>  <CHROM.1>
19.32633988,-10.58757068,157.10184060,43.53769062,143.91017504,-0.36047388
-0.18069426,1.01916164

>  <Name>
lig.pdb

>  <RI>
0

>  <Rbt.Current_Directory>
/home/itssahil/PROJECTS/Mol_Feturizer/New_Systems/rnas/4yb0

>  <Rbt.Executable>
rbdock ($Id: //depot/dev/client3/rdock/2013.1/src/exe/rbdock.cxx#4 $)

>  <Rbt.Library>
libRbt.so (2013.1, Build901 2013/11/27)

>  <Rbt.Parameter_File>
/export/apps/rDock/src/rDock_2013.1_src/data/scripts/dock_solv.prm

>  <Rbt.Receptor>
prm/pocket_docking_3.prm

>  <SCORE>
-53.5163

>  <SCORE.INTER>
-53.4098

>  <SCORE.INTER.CONST>
1

>  <SCORE.INTER.POLAR>
0

>  <SCORE.INTER.ROT>
2

>  <SCORE.INTER.SOLV>
31.594

>  <SCORE.INTER.VDW>
-51.0712

>  <SCORE.INTER.norm>
-1.16108

>  <SCORE.INTRA>
-0.106505

>  <SCORE.INTRA.DIHEDRAL>
-0.0137673

>  <SCORE.INTRA.DIHEDRAL.0>
4.74153

>  <SCORE.INTRA.POLAR>
0

>  <SCORE.INTRA.POLAR.0>
0

>  <SCORE.INTRA.REPUL>
0

>  <SCORE.INTRA.REPUL.0>
0

>  <SCORE.INTRA.SOLV>
0.00373882

>  <SCORE.INTRA.SOLV.lig_0>
-60.4375

>  <SCORE.INTRA.VDW>
-0.101491

>  <SCORE.INTRA.VDW.0>
-1.83689

>  <SCORE.INTRA.norm>
-0.00231534

>  <SCORE.RESTR>
0

>  <SCORE.RESTR.CAVITY>
0

>  <SCORE.RESTR.norm>
0

>  <SCORE.SYSTEM>
0

>  <SCORE.SYSTEM.CONST>
0

>  <SCORE.SYSTEM.DIHEDRAL>
0

>  <SCORE.SYSTEM.SOLV>
0

>  <SCORE.SYSTEM.norm>
0

>  <SCORE.heavy>
46

>  <SCORE.norm>
-1.1634

>  <RMSD>
0.489

$$$$
lig.pdb
 OpenBabel11021811523D
libRbt.so/2013.1/901 2013/11/27
 46 52  0  0  0  0  0  0  0  0999 V2000
  159.6379   46.2350  143.4073 P   0  0  2  0  0  0  0  0  0  0  0  0
  160.2754   47.5774  143.6922 O   0  0  0  0  0  0  0  0  0  0  0  0
  159.1487   46.0021  142.0010 O   0  0  0  0  0  0  0  0  0  0  0  0
  158.4245   45.9376  144.4194 O   0  0  0  0  0  0  0  0  0  0  0  0
  158.1799   46.7629  145.5509 C   0  0  0  0  0  0  0  0  0  0  0  0
  157.2569   46.0494  146.5249 C   0  0  1  0  0  0  0  0  0  0  0  0
  155.9577   46.6074  146.3883 O   0  0  0  0  0  0  0  0  0  0  0  0
  157.1012   44.5496  146.3078 C   0  0  1  0  0  0  0  0  0  0  0  0
  157.8603   43.8447  147.2791 O   0  0  0  0  0  0  0  0  0  0  0  0
  155.6356   44.3033  146.5878 C   0  0  1  0  0  0  0  0  0  0  0  0
  155.4548   44.0098  147.9746 O   0  0  0  0  0  0  0  0  0  0  0  0
  154.9479   45.6118  146.3265 C   0  0  2  0  0  0  0  0  0  0  0  0
  154.3791   45.5980  144.9579 N   0  0  0  0  0  0  0  0  0  0  0  0
  154.9972   46.0380  143.8481 C   0  0  0  0  0  0  0  0  0  0  0  0
  154.1939   45.8966  142.7665 N   0  0  0  0  0  0  0  0  0  0  0  0
  153.0331   45.3560  143.1776 C   0  0  0  0  0  0  0  0  0  0  0  0
  151.7584   44.9447  142.5435 C   0  0  0  0  0  0  0  0  0  0  0  0
  151.5896   45.0917  141.3091 O   0  0  0  0  0  0  0  0  0  0  0  0
  150.8055   44.4191  143.3324 N   0  0  0  0  0  0  0  0  0  0  0  0
  150.9911   44.2648  144.6571 C   0  0  0  0  0  0  0  0  0  0  0  0
  149.9993   43.7258  145.4009 N   0  0  0  0  0  0  0  0  0  0  0  0
  152.1278   44.6188  145.2985 N   0  0  0  0  0  0  0  0  0  0  0  0
  153.1650   45.1604  144.6247 C   0  0  0  0  0  0  0  0  0  0  0  0
  158.1548   42.2502  147.1958 P   0  0  2  0  0  0  0  0  0  0  0  0
  156.8594   41.5197  146.9382 O   0  0  0  0  0  0  0  0  0  0  0  0
  159.0108   41.9177  148.4035 O   0  0  0  0  0  0  0  0  0  0  0  0
  159.0509   42.1334  145.8568 O   0  0  0  0  0  0  0  0  0  0  0  0
  160.4429   42.4451  145.8978 C   0  0  0  0  0  0  0  0  0  0  0  0
  161.0366   42.7355  144.5158 C   0  0  1  0  0  0  0  0  0  0  0  0
  161.1593   41.5119  143.7875 O   0  0  0  0  0  0  0  0  0  0  0  0
  160.2173   43.6870  143.6466 C   0  0  1  0  0  0  0  0  0  0  0  0
  160.6602   45.0388  143.7583 O   0  0  0  0  0  0  0  0  0  0  0  0
  160.4543   43.1358  142.2530 C   0  0  1  0  0  0  0  0  0  0  0  0
  161.6416   43.6918  141.6811 O   0  0  0  0  0  0  0  0  0  0  0  0
  160.6932   41.6524  142.4428 C   0  0  2  0  0  0  0  0  0  0  0  0
  159.4092   40.9215  142.3038 N   0  0  0  0  0  0  0  0  0  0  0  0
  158.8939   40.0596  143.2027 C   0  0  0  0  0  0  0  0  0  0  0  0
  157.6942   39.5591  142.7960 N   0  0  0  0  0  0  0  0  0  0  0  0
  157.4175   40.1139  141.6052 C   0  0  0  0  0  0  0  0  0  0  0  0
  156.3198   40.0198  140.6092 C   0  0  0  0  0  0  0  0  0  0  0  0
  155.3153   39.2977  140.7866 O   0  0  0  0  0  0  0  0  0  0  0  0
  156.4247   40.7624  139.5059 N   0  0  0  0  0  0  0  0  0  0  0  0
  157.4797   41.5580  139.2718 C   0  0  0  0  0  0  0  0  0  0  0  0
  157.4885   42.2500  138.1227 N   0  0  0  0  0  0  0  0  0  0  0  0
  158.5219   41.6907  140.1253 N   0  0  0  0  0  0  0  0  0  0  0  0
  158.5504   41.0064  141.2882 C   0  0  0  0  0  0  0  0  0  0  0  0
  1  3  2  6  0  0  0
  1 32  1  0  0  0  0
  1  2  1  0  0  0  0
  1  4  1  0  0  0  0
  4  5  1  0  0  0  0
  6  5  1  6  0  0  0
  7  6  1  0  0  0  0
  8  6  1  0  0  0  0
  8 10  1  0  0  0  0
  8  9  1  1  0  0  0
 10 11  1  1  0  0  0
 12 13  1  6  0  0  0
 12  7  1  0  0  0  0
 12 10  1  0  0  0  0
 14 13  1  0  0  0  0
 15 16  1  0  0  0  0
 15 14  2  0  0  0  0
 16 23  2  0  0  0  0
 17 16  1  0  0  0  0
 17 19  1  0  0  0  0
 18 17  2  0  0  0  0
 19 20  2  0  0  0  0
 20 22  1  0  0  0  0
 20 21  1  0  0  0  0
 23 13  1  0  0  0  0
 23 22  1  0  0  0  0
 24 25  2  6  0  0  0
 24  9  1  0  0  0  0
 24 26  1  0  0  0  0
 27 28  1  0  0  0  0
 27 24  1  0  0  0  0
 29 30  1  6  0  0  0
 29 28  1  0  0  0  0
 31 32  1  6  0  0  0
 31 29  1  0  0  0  0
 33 34  1  1  0  0  0
 33 35  1  0  0  0  0
 33 31  1  0  0  0  0
 35 36  1  1  0  0  0
 35 30  1  0  0  0  0
 36 37  1  0  0  0  0
 38 37  2  0  0  0  0
 39 38  1  0  0  0  0
 40 41  2  0  0  0  0
 40 39  1  0  0  0  0
 42 40  1  0  0  0  0
 43 42  2  0  0  0  0
 43 45  1  0  0  0  0
 44 43  1  0  0  0  0
 45 46  1  0  0  0  0
 46 39  2  0  0  0  0
 46 36  1  0  0  0  0
M  END
>  <CHROM.1>
23.32201985,-11.73355550,157.12638714,43.57613313,143.92452161,-0.35730631
-0.16305363,1.00848175

>  <Name>
lig.pdb

>  <RI>
0

>  <Rbt.Current_Directory>
/home/itssahil/PROJECTS/Mol_Feturizer/New_Systems/rnas/4yb0

>  <Rbt.Executable>
rbdock ($Id: //depot/dev/client3/rdock/2013.1/src/exe/rbdock.cxx#4 $)

>  <Rbt.Library>
libRbt.so (2013.1, Build901 2013/11/27)

>  <Rbt.Parameter_File>
/export/apps/rDock/src/rDock_2013.1_src/data/scripts/dock_solv.prm

>  <Rbt.Receptor>
prm/pocket_docking_3.prm

>  <SCORE>
-53.7465

>  <SCORE.INTER>
-53.6107

>  <SCORE.INTER.CONST>
1

>  <SCORE.INTER.POLAR>
0

>  <SCORE.INTER.ROT>
2

>  <SCORE.INTER.SOLV>
31.4077

>  <SCORE.INTER.VDW>
-51.143

>  <SCORE.INTER.norm>
-1.16545

>  <SCORE.INTRA>
-0.135874

>  <SCORE.INTRA.DIHEDRAL>
-0.0207514

>  <SCORE.INTRA.DIHEDRAL.0>
4.74153

>  <SCORE.INTRA.POLAR>
0

>  <SCORE.INTRA.POLAR.0>
0

>  <SCORE.INTRA.REPUL>
0

>  <SCORE.INTRA.REPUL.0>
0

>  <SCORE.INTRA.SOLV>
0.00242577

>  <SCORE.INTRA.SOLV.lig_0>
-60.4375

>  <SCORE.INTRA.VDW>
-0.126711

>  <SCORE.INTRA.VDW.0>
-1.83689

>  <SCORE.INTRA.norm>
-0.00295379

>  <SCORE.RESTR>
0

>  <SCORE.RESTR.CAVITY>
0

>  <SCORE.RESTR.norm>
0

>  <SCORE.SYSTEM>
0

>  <SCORE.SYSTEM.CONST>
0

>  <SCORE.SYSTEM.DIHEDRAL>
0

>  <SCORE.SYSTEM.SOLV>
0

>  <SCORE.SYSTEM.norm>
0

>  <SCORE.heavy>
46

>  <SCORE.norm>
-1.1684

>  <RMSD>
0.490

$$$$
lig.pdb
 OpenBabel11021811523D
libRbt.so/2013.1/901 2013/11/27
 46 52  0  0  0  0  0  0  0  0999 V2000
  159.6503   46.2650  143.4805 P   0  0  2  0  0  0  0  0  0  0  0  0
  160.2908   47.6012  143.7868 O   0  0  0  0  0  0  0  0  0  0  0  0
  159.1798   46.0476  142.0654 O   0  0  0  0  0  0  0  0  0  0  0  0
  158.4214   45.9648  144.4727 O   0  0  0  0  0  0  0  0  0  0  0  0
  158.1652   46.7808  145.6083 C   0  0  0  0  0  0  0  0  0  0  0  0
  157.2249   46.0634  146.5627 C   0  0  1  0  0  0  0  0  0  0  0  0
  155.9307   46.6296  146.4131 O   0  0  0  0  0  0  0  0  0  0  0  0
  157.0644   44.5665  146.3295 C   0  0  1  0  0  0  0  0  0  0  0  0
  157.8061   43.8486  147.3048 O   0  0  0  0  0  0  0  0  0  0  0  0
  155.5938   44.3255  146.5866 C   0  0  1  0  0  0  0  0  0  0  0  0
  155.3920   44.0203  147.9680 O   0  0  0  0  0  0  0  0  0  0  0  0
  154.9167   45.6400  146.3279 C   0  0  2  0  0  0  0  0  0  0  0  0
  154.3670   45.6418  144.9514 N   0  0  0  0  0  0  0  0  0  0  0  0
  155.0079   46.0766  143.8525 C   0  0  0  0  0  0  0  0  0  0  0  0
  154.2178   45.9534  142.7591 N   0  0  0  0  0  0  0  0  0  0  0  0
  153.0425   45.4303  143.1512 C   0  0  0  0  0  0  0  0  0  0  0  0
  151.7703   45.0430  142.4974 C   0  0  0  0  0  0  0  0  0  0  0  0
  151.6214   45.1984  141.2614 O   0  0  0  0  0  0  0  0  0  0  0  0
  150.7978   44.5297  143.2703 N   0  0  0  0  0  0  0  0  0  0  0  0
  150.9621   44.3663  144.5967 C   0  0  0  0  0  0  0  0  0  0  0  0
  149.9512   43.8405  145.3239 N   0  0  0  0  0  0  0  0  0  0  0  0
  152.0954   44.6985  145.2556 N   0  0  0  0  0  0  0  0  0  0  0  0
  153.1507   45.2259  144.5991 C   0  0  0  0  0  0  0  0  0  0  0  0
  158.0935   42.2535  147.2107 P   0  0  2  0  0  0  0  0  0  0  0  0
  156.7980   41.5323  146.9283 O   0  0  0  0  0  0  0  0  0  0  0  0
  158.9306   41.9053  148.4272 O   0  0  0  0  0  0  0  0  0  0  0  0
  159.0076   42.1442  145.8835 O   0  0  0  0  0  0  0  0  0  0  0  0
  160.4005   42.4480  145.9468 C   0  0  0  0  0  0  0  0  0  0  0  0
  161.0151   42.7480  144.5760 C   0  0  1  0  0  0  0  0  0  0  0  0
  161.1416   41.5305  143.8381 O   0  0  0  0  0  0  0  0  0  0  0  0
  160.2130   43.7117  143.7043 C   0  0  1  0  0  0  0  0  0  0  0  0
  160.6614   45.0601  143.8347 O   0  0  0  0  0  0  0  0  0  0  0  0
  160.4667   43.1721  142.3090 C   0  0  1  0  0  0  0  0  0  0  0  0
  161.6648   43.7270  141.7590 O   0  0  0  0  0  0  0  0  0  0  0  0
  160.6951   41.6858  142.4884 C   0  0  2  0  0  0  0  0  0  0  0  0
  159.4094   40.9631  142.3247 N   0  0  0  0  0  0  0  0  0  0  0  0
  158.9003   40.0596  143.1855 C   0  0  0  0  0  0  0  0  0  0  0  0
  157.6970   39.5797  142.7646 N   0  0  0  0  0  0  0  0  0  0  0  0
  157.4116   40.1909  141.6039 C   0  0  0  0  0  0  0  0  0  0  0  0
  156.3062   40.1451  140.6131 C   0  0  0  0  0  0  0  0  0  0  0  0
  155.3023   39.4159  140.7636 O   0  0  0  0  0  0  0  0  0  0  0  0
  156.4032   40.9394  139.5457 N   0  0  0  0  0  0  0  0  0  0  0  0
  157.4571   41.7447  139.3417 C   0  0  0  0  0  0  0  0  0  0  0  0
  157.4577   42.4908  138.2269 N   0  0  0  0  0  0  0  0  0  0  0  0
  158.5060   41.8359  140.1924 N   0  0  0  0  0  0  0  0  0  0  0  0
  158.5428   41.0969  141.3210 C   0  0  0  0  0  0  0  0  0  0  0  0
  1  3  2  6  0  0  0
  1 32  1  0  0  0  0
  1  2  1  0  0  0  0
  1  4  1  0  0  0  0
  4  5  1  0  0  0  0
  6  5  1  6  0  0  0
  7  6  1  0  0  0  0
  8  6  1  0  0  0  0
  8 10  1  0  0  0  0
  8  9  1  1  0  0  0
 10 11  1  1  0  0  0
 12 13  1  6  0  0  0
 12  7  1  0  0  0  0
 12 10  1  0  0  0  0
 14 13  1  0  0  0  0
 15 16  1  0  0  0  0
 15 14  2  0  0  0  0
 16 23  2  0  0  0  0
 17 16  1  0  0  0  0
 17 19  1  0  0  0  0
 18 17  2  0  0  0  0
 19 20  2  0  0  0  0
 20 22  1  0  0  0  0
 20 21  1  0  0  0  0
 23 13  1  0  0  0  0
 23 22  1  0  0  0  0
 24 25  2  6  0  0  0
 24  9  1  0  0  0  0
 24 26  1  0  0  0  0
 27 28  1  0  0  0  0
 27 24  1  0  0  0  0
 29 30  1  6  0  0  0
 29 28  1  0  0  0  0
 31 32  1  6  0  0  0
 31 29  1  0  0  0  0
 33 34  1  1  0  0  0
 33 35  1  0  0  0  0
 33 31  1  0  0  0  0
 35 36  1  1  0  0  0
 35 30  1  0  0  0  0
 36 37  1  0  0  0  0
 38 37  2  0  0  0  0
 39 38  1  0  0  0  0
 40 41  2  0  0  0  0
 40 39  1  0  0  0  0
 42 40  1  0  0  0  0
 43 42  2  0  0  0  0
 43 45  1  0  0  0  0
 44 43  1  0  0  0  0
 45 46  1  0  0  0  0
 46 39  2  0  0  0  0
 46 36  1  0  0  0  0
M  END
>  <CHROM.1>
24.01667879,-14.28283175,157.11008183,43.62854965,143.94512292,-0.32805312
-0.17931659,1.02446017

>  <Name>
lig.pdb

>  <RI>
0

>  <Rbt.Current_Directory>
/home/itssahil/PROJECTS/Mol_Feturizer/New_Systems/rnas/4yb0

>  <Rbt.Executable>
rbdock ($Id: //depot/dev/client3/rdock/2013.1/src/exe/rbdock.cxx#4 $)

>  <Rbt.Library>
libRbt.so (2013.1, Build901 2013/11/27)

>  <Rbt.Parameter_File>
/export/apps/rDock/src/rDock_2013.1_src/data/scripts/dock_solv.prm

>  <Rbt.Receptor>
prm/pocket_docking_4.prm

>  <SCORE>
-53.5494

>  <SCORE.INTER>
-53.4216

>  <SCORE.INTER.CONST>
1

>  <SCORE.INTER.POLAR>
0

>  <SCORE.INTER.ROT>
2

>  <SCORE.INTER.SOLV>
31.4075

>  <SCORE.INTER.VDW>
-51.0169

>  <SCORE.INTER.norm>
-1.16134

>  <SCORE.INTRA>
-0.127839

>  <SCORE.INTRA.DIHEDRAL>
-0.0273594

>  <SCORE.INTRA.DIHEDRAL.0>
4.74153

>  <SCORE.INTRA.POLAR>
0

>  <SCORE.INTRA.POLAR.0>
0

>  <SCORE.INTRA.REPUL>
0

>  <SCORE.INTRA.REPUL.0>
0

>  <SCORE.INTRA.SOLV>
-0.00380415

>  <SCORE.INTRA.SOLV.lig_0>
-60.4375

>  <SCORE.INTRA.VDW>
-0.112258

>  <SCORE.INTRA.VDW.0>
-1.83689

>  <SCORE.INTRA.norm>
-0.00277912

>  <SCORE.RESTR>
0

>  <SCORE.RESTR.CAVITY>
0

>  <SCORE.RESTR.norm>
0

>  <SCORE.SYSTEM>
0

>  <SCORE.SYSTEM.CONST>
0

>  <SCORE.SYSTEM.DIHEDRAL>
0

>  <SCORE.SYSTEM.SOLV>
0

>  <SCORE.SYSTEM.norm>
0

>  <SCORE.heavy>
46

>  <SCORE.norm>
-1.16412

>  <RMSD>
0.492

$$$$
lig.pdb
 OpenBabel11021811523D
libRbt.so/2013.1/901 2013/11/27
 46 52  0  0  0  0  0  0  0  0999 V2000
  159.6138   46.2736  143.4414 P   0  0  2  0  0  0  0  0  0  0  0  0
  160.2383   47.6208  143.7321 O   0  0  0  0  0  0  0  0  0  0  0  0
  159.1357   46.0384  142.0317 O   0  0  0  0  0  0  0  0  0  0  0  0
  158.3965   45.9647  144.4453 O   0  0  0  0  0  0  0  0  0  0  0  0
  158.1377   46.7864  145.5762 C   0  0  0  0  0  0  0  0  0  0  0  0
  157.2145   46.0639  146.5434 C   0  0  1  0  0  0  0  0  0  0  0  0
  155.9115   46.6112  146.3991 O   0  0  0  0  0  0  0  0  0  0  0  0
  157.0727   44.5631  146.3233 C   0  0  1  0  0  0  0  0  0  0  0  0
  157.8314   43.8633  147.2987 O   0  0  0  0  0  0  0  0  0  0  0  0
  155.6075   44.3042  146.5936 C   0  0  1  0  0  0  0  0  0  0  0  0
  155.4202   44.0074  147.9788 O   0  0  0  0  0  0  0  0  0  0  0  0
  154.9106   45.6073  146.3295 C   0  0  2  0  0  0  0  0  0  0  0  0
  154.3506   45.5906  144.9573 N   0  0  0  0  0  0  0  0  0  0  0  0
  154.9746   46.0317  143.8512 C   0  0  0  0  0  0  0  0  0  0  0  0
  154.1788   45.8867  142.7645 N   0  0  0  0  0  0  0  0  0  0  0  0
  153.0170   45.3428  143.1684 C   0  0  0  0  0  0  0  0  0  0  0  0
  151.7478   44.9269  142.5265 C   0  0  0  0  0  0  0  0  0  0  0  0
  151.5866   45.0723  141.2908 O   0  0  0  0  0  0  0  0  0  0  0  0
  150.7915   44.3989  143.3096 N   0  0  0  0  0  0  0  0  0  0  0  0
  150.9690   44.2464  144.6356 C   0  0  0  0  0  0  0  0  0  0  0  0
  149.9741   43.7048  145.3734 N   0  0  0  0  0  0  0  0  0  0  0  0
  152.1004   44.6045  145.2840 N   0  0  0  0  0  0  0  0  0  0  0  0
  153.1401   45.1488  144.6165 C   0  0  0  0  0  0  0  0  0  0  0  0
  158.1398   42.2715  147.2152 P   0  0  2  0  0  0  0  0  0  0  0  0
  156.8522   41.5305  146.9483 O   0  0  0  0  0  0  0  0  0  0  0  0
  158.9908   41.9446  148.4280 O   0  0  0  0  0  0  0  0  0  0  0  0
  159.0455   42.1639  145.8819 O   0  0  0  0  0  0  0  0  0  0  0  0
  160.4345   42.4872  145.9322 C   0  0  0  0  0  0  0  0  0  0  0  0
  161.0346   42.7844  144.5544 C   0  0  1  0  0  0  0  0  0  0  0  0
  161.1722   41.5628  143.8254 O   0  0  0  0  0  0  0  0  0  0  0  0
  160.2130   43.7301  143.6812 C   0  0  1  0  0  0  0  0  0  0  0  0
  160.6438   45.0855  143.7974 O   0  0  0  0  0  0  0  0  0  0  0  0
  160.4636   43.1828  142.2884 C   0  0  1  0  0  0  0  0  0  0  0  0
  161.6498   43.7495  141.7249 O   0  0  0  0  0  0  0  0  0  0  0  0
  160.7136   41.7012  142.4779 C   0  0  2  0  0  0  0  0  0  0  0  0
  159.4367   40.9598  142.3297 N   0  0  0  0  0  0  0  0  0  0  0  0
  158.9462   40.0567  143.2017 C   0  0  0  0  0  0  0  0  0  0  0  0
  157.7466   39.5570  142.7937 N   0  0  0  0  0  0  0  0  0  0  0  0
  157.4443   40.1546  141.6302 C   0  0  0  0  0  0  0  0  0  0  0  0
  156.3324   40.0855  140.6480 C   0  0  0  0  0  0  0  0  0  0  0  0
  155.3397   39.3440  140.8120 O   0  0  0  0  0  0  0  0  0  0  0  0
  156.4108   40.8721  139.5734 N   0  0  0  0  0  0  0  0  0  0  0  0
  157.4521   41.6898  139.3549 C   0  0  0  0  0  0  0  0  0  0  0  0
  157.4344   42.4265  138.2340 N   0  0  0  0  0  0  0  0  0  0  0  0
  158.5059   41.8024  140.1970 N   0  0  0  0  0  0  0  0  0  0  0  0
  158.5610   41.0734  141.3314 C   0  0  0  0  0  0  0  0  0  0  0  0
  1  3  2  6  0  0  0
  1 32  1  0  0  0  0
  1  2  1  0  0  0  0
  1  4  1  0  0  0  0
  4  5  1  0  0  0  0
  6  5  1  6  0  0  0
  7  6  1  0  0  0  0
  8  6  1  0  0  0  0
  8 10  1  0  0  0  0
  8  9  1  1  0  0  0
 10 11  1  1  0  0  0
 12 13  1  6  0  0  0
 12  7  1  0  0  0  0
 12 10  1  0  0  0  0
 14 13  1  0  0  0  0
 15 16  1  0  0  0  0
 15 14  2  0  0  0  0
 16 23  2  0  0  0  0
 17 16  1  0  0  0  0
 17 19  1  0  0  0  0
 18 17  2  0  0  0  0
 19 20  2  0  0  0  0
 20 22  1  0  0  0  0
 20 21  1  0  0  0  0
 23 13  1  0  0  0  0
 23 22  1  0  0  0  0
 24 25  2  6  0  0  0
 24  9  1  0  0  0  0
 24 26  1  0  0  0  0
 27 28  1  0  0  0  0
 27 24  1  0  0  0  0
 29 30  1  6  0  0  0
 29 28  1  0  0  0  0
 31 32  1  6  0  0  0
 31 29  1  0  0  0  0
 33 34  1  1  0  0  0
 33 35  1  0  0  0  0
 33 31  1  0  0  0  0
 35 36  1  1  0  0  0
 35 30  1  0  0  0  0
 36 37  1  0  0  0  0
 38 37  2  0  0  0  0
 39 38  1  0  0  0  0
 40 41  2  0  0  0  0
 40 39  1  0  0  0  0
 42 40  1  0  0  0  0
 43 42  2  0  0  0  0
 43 45  1  0  0  0  0
 44 43  1  0  0  0  0
 45 46  1  0  0  0  0
 46 39  2  0  0  0  0
 46 36  1  0  0  0  0
M  END
>  <CHROM.1>
23.64232404,-14.26265435,157.11414570,43.60472988,143.94591977,-0.32648741
-0.16233618,1.01609116

>  <Name>
lig.pdb

>  <RI>
0

>  <Rbt.Current_Directory>
/home/itssahil/PROJECTS/Mol_Feturizer/New_Systems/rnas/4yb0

>  <Rbt.Executable>
rbdock ($Id: //depot/dev/client3/rdock/2013.1/src/exe/rbdock.cxx#4 $)

>  <Rbt.Library>
libRbt.so (2013.1, Build901 2013/11/27)

>  <Rbt.Parameter_File>
/export/apps/rDock/src/rDock_2013.1_src/data/scripts/dock_solv.prm

>  <Rbt.Receptor>
prm/pocket_docking_6.prm

>  <SCORE>
-53.6106

>  <SCORE.INTER>
-53.4855

>  <SCORE.INTER.CONST>
1

>  <SCORE.INTER.POLAR>
0

>  <SCORE.INTER.ROT>
2

>  <SCORE.INTER.SOLV>
31.1344

>  <SCORE.INTER.VDW>
-50.9684

>  <SCORE.INTER.norm>
-1.16273

>  <SCORE.INTRA>
-0.125158

>  <SCORE.INTRA.DIHEDRAL>
-0.0270456

>  <SCORE.INTRA.DIHEDRAL.0>
4.74153

>  <SCORE.INTRA.POLAR>
0

>  <SCORE.INTRA.POLAR.0>
0

>  <SCORE.INTRA.REPUL>
0

>  <SCORE.INTRA.REPUL.0>
0

>  <SCORE.INTRA.SOLV>
-0.00412479

>  <SCORE.INTRA.SOLV.lig_0>
-60.4375

>  <SCORE.INTRA.VDW>
-0.109572

>  <SCORE.INTRA.VDW.0>
-1.83689

>  <SCORE.INTRA.norm>
-0.00272082

>  <SCORE.RESTR>
0

>  <SCORE.RESTR.CAVITY>
0

>  <SCORE.RESTR.norm>
0

>  <SCORE.SYSTEM>
0

>  <SCORE.SYSTEM.CONST>
0

>  <SCORE.SYSTEM.DIHEDRAL>
0

>  <SCORE.SYSTEM.SOLV>
0

>  <SCORE.SYSTEM.norm>
0

>  <SCORE.heavy>
46

>  <SCORE.norm>
-1.16545

>  <RMSD>
0.496

$$$$
lig.pdb
 OpenBabel11021811523D
libRbt.so/2013.1/901 2013/11/27
 46 52  0  0  0  0  0  0  0  0999 V2000
  159.6370   46.2990  143.4670 P   0  0  2  0  0  0  0  0  0  0  0  0
  160.2664   47.6387  143.7809 O   0  0  0  0  0  0  0  0  0  0  0  0
  159.1700   46.0851  142.0502 O   0  0  0  0  0  0  0  0  0  0  0  0
  158.4092   45.9839  144.4560 O   0  0  0  0  0  0  0  0  0  0  0  0
  158.1450   46.7921  145.5954 C   0  0  0  0  0  0  0  0  0  0  0  0
  157.2093   46.0624  146.5448 C   0  0  1  0  0  0  0  0  0  0  0  0
  155.9108   46.6190  146.3964 O   0  0  0  0  0  0  0  0  0  0  0  0
  157.0610   44.5654  146.3038 C   0  0  1  0  0  0  0  0  0  0  0  0
  157.8071   43.8486  147.2764 O   0  0  0  0  0  0  0  0  0  0  0  0
  155.5921   44.3114  146.5578 C   0  0  1  0  0  0  0  0  0  0  0  0
  155.3909   43.9976  147.9373 O   0  0  0  0  0  0  0  0  0  0  0  0
  154.9048   45.6218  146.3049 C   0  0  2  0  0  0  0  0  0  0  0  0
  154.3569   45.6263  144.9277 N   0  0  0  0  0  0  0  0  0  0  0  0
  154.9746   46.1201  143.8405 C   0  0  0  0  0  0  0  0  0  0  0  0
  154.1930   45.9803  142.7428 N   0  0  0  0  0  0  0  0  0  0  0  0
  153.0470   45.3862  143.1204 C   0  0  0  0  0  0  0  0  0  0  0  0
  151.7978   44.9468  142.4552 C   0  0  0  0  0  0  0  0  0  0  0  0
  151.6418   45.1227  141.2228 O   0  0  0  0  0  0  0  0  0  0  0  0
  150.8536   44.3645  143.2140 N   0  0  0  0  0  0  0  0  0  0  0  0
  151.0253   44.1794  144.5366 C   0  0  0  0  0  0  0  0  0  0  0  0
  150.0434   43.5835  145.2493 N   0  0  0  0  0  0  0  0  0  0  0  0
  152.1387   44.5562  145.2053 N   0  0  0  0  0  0  0  0  0  0  0  0
  153.1649   45.1543  144.5633 C   0  0  0  0  0  0  0  0  0  0  0  0
  158.1073   42.2562  147.1747 P   0  0  2  0  0  0  0  0  0  0  0  0
  156.8180   41.5262  146.8868 O   0  0  0  0  0  0  0  0  0  0  0  0
  158.9457   41.9085  148.3905 O   0  0  0  0  0  0  0  0  0  0  0  0
  159.0241   42.1610  145.8481 O   0  0  0  0  0  0  0  0  0  0  0  0
  160.4144   42.4756  145.9148 C   0  0  0  0  0  0  0  0  0  0  0  0
  161.0283   42.7874  144.5464 C   0  0  1  0  0  0  0  0  0  0  0  0
  161.1655   41.5747  143.8025 O   0  0  0  0  0  0  0  0  0  0  0  0
  160.2198   43.7492  143.6785 C   0  0  1  0  0  0  0  0  0  0  0  0
  160.6571   45.1004  143.8164 O   0  0  0  0  0  0  0  0  0  0  0  0
  160.4796   43.2188  142.2809 C   0  0  1  0  0  0  0  0  0  0  0  0
  161.6739   43.7860  141.7353 O   0  0  0  0  0  0  0  0  0  0  0  0
  160.7196   41.7334  142.4530 C   0  0  2  0  0  0  0  0  0  0  0  0
  159.4399   41.0014  142.2839 N   0  0  0  0  0  0  0  0  0  0  0  0
  158.9058   40.1368  143.1693 C   0  0  0  0  0  0  0  0  0  0  0  0
  157.7160   39.6358  142.7348 N   0  0  0  0  0  0  0  0  0  0  0  0
  157.4651   40.1930  141.5395 C   0  0  0  0  0  0  0  0  0  0  0  0
  156.3900   40.0998  140.5191 C   0  0  0  0  0  0  0  0  0  0  0  0
  155.3826   39.3762  140.6725 O   0  0  0  0  0  0  0  0  0  0  0  0
  156.5185   40.8449  139.4200 N   0  0  0  0  0  0  0  0  0  0  0  0
  157.5775   41.6423  139.2112 C   0  0  0  0  0  0  0  0  0  0  0  0
  157.6110   42.3368  138.0641 N   0  0  0  0  0  0  0  0  0  0  0  0
  158.6003   41.7743  140.0879 N   0  0  0  0  0  0  0  0  0  0  0  0
  158.6037   41.0875  141.2496 C   0  0  0  0  0  0  0  0  0  0  0  0
  1  3  2  6  0  0  0
  1 32  1  0  0  0  0
  1  2  1  0  0  0  0
  1  4  1  0  0  0  0
  4  5  1  0  0  0  0
  6  5  1  6  0  0  0
  7  6  1  0  0  0  0
  8  6  1  0  0  0  0
  8 10  1  0  0  0  0
  8  9  1  1  0  0  0
 10 11  1  1  0  0  0
 12 13  1  6  0  0  0
 12  7  1  0  0  0  0
 12 10  1  0  0  0  0
 14 13  1  0  0  0  0
 15 16  1  0  0  0  0
 15 14  2  0  0  0  0
 16 23  2  0  0  0  0
 17 16  1  0  0  0  0
 17 19  1  0  0  0  0
 18 17  2  0  0  0  0
 19 20  2  0  0  0  0
 20 22  1  0  0  0  0
 20 21  1  0  0  0  0
 23 13  1  0  0  0  0
 23 22  1  0  0  0  0
 24 25  2  6  0  0  0
 24  9  1  0  0  0  0
 24 26  1  0  0  0  0
 27 28  1  0  0  0  0
 27 24  1  0  0  0  0
 29 30  1  6  0  0  0
 29 28  1  0  0  0  0
 31 32  1  6  0  0  0
 31 29  1  0  0  0  0
 33 34  1  1  0  0  0
 33 35  1  0  0  0  0
 33 31  1  0  0  0  0
 35 36  1  1  0  0  0
 35 30  1  0  0  0  0
 36 37  1  0  0  0  0
 38 37  2  0  0  0  0
 39 38  1  0  0  0  0
 40 41  2  0  0  0  0
 40 39  1  0  0  0  0
 42 40  1  0  0  0  0
 43 42  2  0  0  0  0
 43 45  1  0  0  0  0
 44 43  1  0  0  0  0
 45 46  1  0  0  0  0
 46 39  2  0  0  0  0
 46 36  1  0  0  0  0
M  END
>  <CHROM.1>
21.21126754,-10.92573390,157.13188795,43.61276567,143.90364533,-0.34493970
-0.16056814,1.02119044

>  <Name>
lig.pdb

>  <RI>
0

>  <Rbt.Current_Directory>
/home/itssahil/PROJECTS/Mol_Feturizer/New_Systems/rnas/4yb0

>  <Rbt.Executable>
rbdock ($Id: //depot/dev/client3/rdock/2013.1/src/exe/rbdock.cxx#4 $)

>  <Rbt.Library>
libRbt.so (2013.1, Build901 2013/11/27)

>  <Rbt.Parameter_File>
/export/apps/rDock/src/rDock_2013.1_src/data/scripts/dock_solv.prm

>  <Rbt.Receptor>
prm/pocket_docking_5.prm

>  <SCORE>
-53.5305

>  <SCORE.INTER>
-53.4263

>  <SCORE.INTER.CONST>
1

>  <SCORE.INTER.POLAR>
0

>  <SCORE.INTER.ROT>
2

>  <SCORE.INTER.SOLV>
30.9718

>  <SCORE.INTER.VDW>
-50.8748

>  <SCORE.INTER.norm>
-1.16144

>  <SCORE.INTRA>
-0.104218

>  <SCORE.INTRA.DIHEDRAL>
-0.0167788

>  <SCORE.INTRA.DIHEDRAL.0>
4.74153

>  <SCORE.INTRA.POLAR>
0

>  <SCORE.INTRA.POLAR.0>
0

>  <SCORE.INTRA.REPUL>
0

>  <SCORE.INTRA.REPUL.0>
0

>  <SCORE.INTRA.SOLV>
0.00309912

>  <SCORE.INTRA.SOLV.lig_0>
-60.4375

>  <SCORE.INTRA.VDW>
-0.0973782

>  <SCORE.INTRA.VDW.0>
-1.83689

>  <SCORE.INTRA.norm>
-0.00226561

>  <SCORE.RESTR>
0

>  <SCORE.RESTR.CAVITY>
0

>  <SCORE.RESTR.norm>
0

>  <SCORE.SYSTEM>
0

>  <SCORE.SYSTEM.CONST>
0

>  <SCORE.SYSTEM.DIHEDRAL>
0

>  <SCORE.SYSTEM.SOLV>
0

>  <SCORE.SYSTEM.norm>
0

>  <SCORE.heavy>
46

>  <SCORE.norm>
-1.16371

>  <RMSD>
0.497

$$$$
lig.pdb
 OpenBabel11021811523D
libRbt.so/2013.1/901 2013/11/27
 46 52  0  0  0  0  0  0  0  0999 V2000
  159.6251   46.2749  143.4411 P   0  0  2  0  0  0  0  0  0  0  0  0
  160.2562   47.6157  143.7466 O   0  0  0  0  0  0  0  0  0  0  0  0
  159.1535   46.0545  142.0268 O   0  0  0  0  0  0  0  0  0  0  0  0
  158.4001   45.9653  144.4355 O   0  0  0  0  0  0  0  0  0  0  0  0
  158.1400   46.7791  145.5718 C   0  0  0  0  0  0  0  0  0  0  0  0
  157.2068   46.0544  146.5276 C   0  0  1  0  0  0  0  0  0  0  0  0
  155.9081   46.6111  146.3806 O   0  0  0  0  0  0  0  0  0  0  0  0
  157.0570   44.5564  146.2942 C   0  0  1  0  0  0  0  0  0  0  0  0
  157.8057   43.8438  147.2679 O   0  0  0  0  0  0  0  0  0  0  0  0
  155.5886   44.3045  146.5539 C   0  0  1  0  0  0  0  0  0  0  0  0
  155.3916   43.9973  147.9356 O   0  0  0  0  0  0  0  0  0  0  0  0
  154.9014   45.6141  146.2969 C   0  0  2  0  0  0  0  0  0  0  0  0
  154.3492   45.6123  144.9214 N   0  0  0  0  0  0  0  0  0  0  0  0
  154.9644   46.0991  143.8297 C   0  0  0  0  0  0  0  0  0  0  0  0
  154.1791   45.9550  142.7352 N   0  0  0  0  0  0  0  0  0  0  0  0
  153.0331   45.3651  143.1195 C   0  0  0  0  0  0  0  0  0  0  0  0
  151.7810   44.9247  142.4606 C   0  0  0  0  0  0  0  0  0  0  0  0
  151.6215   45.0944  141.2278 O   0  0  0  0  0  0  0  0  0  0  0  0
  150.8380   44.3483  143.2254 N   0  0  0  0  0  0  0  0  0  0  0  0
  151.0135   44.1700  144.5484 C   0  0  0  0  0  0  0  0  0  0  0  0
  150.0326   43.5799  145.2674 N   0  0  0  0  0  0  0  0  0  0  0  0
  152.1297   44.5481  145.2117 N   0  0  0  0  0  0  0  0  0  0  0  0
  153.1550   45.1408  144.5633 C   0  0  0  0  0  0  0  0  0  0  0  0
  158.1047   42.2508  147.1728 P   0  0  2  0  0  0  0  0  0  0  0  0
  156.8140   41.5201  146.8925 O   0  0  0  0  0  0  0  0  0  0  0  0
  158.9466   41.9084  148.3876 O   0  0  0  0  0  0  0  0  0  0  0  0
  159.0172   42.1487  145.8438 O   0  0  0  0  0  0  0  0  0  0  0  0
  160.4079   42.4628  145.9047 C   0  0  0  0  0  0  0  0  0  0  0  0
  161.0177   42.7677  144.5329 C   0  0  1  0  0  0  0  0  0  0  0  0
  161.1519   41.5514  143.7944 O   0  0  0  0  0  0  0  0  0  0  0  0
  160.2070   43.7258  143.6630 C   0  0  1  0  0  0  0  0  0  0  0  0
  160.6456   45.0774  143.7930 O   0  0  0  0  0  0  0  0  0  0  0  0
  160.4621   43.1885  142.2671 C   0  0  1  0  0  0  0  0  0  0  0  0
  161.6551   43.7524  141.7151 O   0  0  0  0  0  0  0  0  0  0  0  0
  160.7018   41.7039  142.4456 C   0  0  2  0  0  0  0  0  0  0  0  0
  159.4212   40.9718  142.2839 N   0  0  0  0  0  0  0  0  0  0  0  0
  158.9123   40.0764  143.1534 C   0  0  0  0  0  0  0  0  0  0  0  0
  157.7142   39.5843  142.7320 N   0  0  0  0  0  0  0  0  0  0  0  0
  157.4319   40.1789  141.5620 C   0  0  0  0  0  0  0  0  0  0  0  0
  156.3324   40.1141  140.5657 C   0  0  0  0  0  0  0  0  0  0  0  0
  155.3319   39.3811  140.7199 O   0  0  0  0  0  0  0  0  0  0  0  0
  156.4310   40.8952  139.4887 N   0  0  0  0  0  0  0  0  0  0  0  0
  157.4814   41.7038  139.2802 C   0  0  0  0  0  0  0  0  0  0  0  0
  157.4841   42.4355  138.1560 N   0  0  0  0  0  0  0  0  0  0  0  0
  158.5250   41.8120  140.1356 N   0  0  0  0  0  0  0  0  0  0  0  0
  158.5596   41.0877  141.2738 C   0  0  0  0  0  0  0  0  0  0  0  0
  1  3  2  6  0  0  0
  1 32  1  0  0  0  0
  1  2  1  0  0  0  0
  1  4  1  0  0  0  0
  4  5  1  0  0  0  0
  6  5  1  6  0  0  0
  7  6  1  0  0  0  0
  8  6  1  0  0  0  0
  8 10  1  0  0  0  0
  8  9  1  1  0  0  0
 10 11  1  1  0  0  0
 12 13  1  6  0  0  0
 12  7  1  0  0  0  0
 12 10  1  0  0  0  0
 14 13  1  0  0  0  0
 15 16  1  0  0  0  0
 15 14  2  0  0  0  0
 16 23  2  0  0  0  0
 17 16  1  0  0  0  0
 17 19  1  0  0  0  0
 18 17  2  0  0  0  0
 19 20  2  0  0  0  0
 20 22  1  0  0  0  0
 20 21  1  0  0  0  0
 23 13  1  0  0  0  0
 23 22  1  0  0  0  0
 24 25  2  6  0  0  0
 24  9  1  0  0  0  0
 24 26  1  0  0  0  0
 27 28  1  0  0  0  0
 27 24  1  0  0  0  0
 29 30  1  6  0  0  0
 29 28  1  0  0  0  0
 31 32  1  6  0  0  0
 31 29  1  0  0  0  0
 33 34  1  1  0  0  0
 33 35  1  0  0  0  0
 33 31  1  0  0  0  0
 35 36  1  1  0  0  0
 35 30  1  0  0  0  0
 36 37  1  0  0  0  0
 38 37  2  0  0  0  0
 39 38  1  0  0  0  0
 40 41  2  0  0  0  0
 40 39  1  0  0  0  0
 42 40  1  0  0  0  0
 43 42  2  0  0  0  0
 43 45  1  0  0  0  0
 44 43  1  0  0  0  0
 45 46  1  0  0  0  0
 46 39  2  0  0  0  0
 46 36  1  0  0  0  0
M  END
>  <CHROM.1>
21.29886228,-13.41061252,157.11311107,43.60260068,143.90483431,-0.32586077
-0.16149002,1.02053935

>  <Name>
lig.pdb

>  <RI>
0

>  <Rbt.Current_Directory>
/home/itssahil/PROJECTS/Mol_Feturizer/New_Systems/rnas/4yb0

>  <Rbt.Executable>
rbdock ($Id: //depot/dev/client3/rdock/2013.1/src/exe/rbdock.cxx#4 $)

>  <Rbt.Library>
libRbt.so (2013.1, Build901 2013/11/27)

>  <Rbt.Parameter_File>
/export/apps/rDock/src/rDock_2013.1_src/data/scripts/dock_solv.prm

>  <Rbt.Receptor>
prm/pocket_docking_6.prm

>  <SCORE>
-53.5749

>  <SCORE.INTER>
-53.4815

>  <SCORE.INTER.CONST>
1

>  <SCORE.INTER.POLAR>
0

>  <SCORE.INTER.ROT>
2

>  <SCORE.INTER.SOLV>
31.1087

>  <SCORE.INTER.VDW>
-50.9572

>  <SCORE.INTER.norm>
-1.16264

>  <SCORE.INTRA>
-0.0934013

>  <SCORE.INTRA.DIHEDRAL>
-0.0230282

>  <SCORE.INTRA.DIHEDRAL.0>
4.74153

>  <SCORE.INTRA.POLAR>
0

>  <SCORE.INTRA.POLAR.0>
0

>  <SCORE.INTRA.REPUL>
0

>  <SCORE.INTRA.REPUL.0>
0

>  <SCORE.INTRA.SOLV>
-0.00478297

>  <SCORE.INTRA.SOLV.lig_0>
-60.4375

>  <SCORE.INTRA.VDW>
-0.0794956

>  <SCORE.INTRA.VDW.0>
-1.83689

>  <SCORE.INTRA.norm>
-0.00203046

>  <SCORE.RESTR>
0

>  <SCORE.RESTR.CAVITY>
0

>  <SCORE.RESTR.norm>
0

>  <SCORE.SYSTEM>
0

>  <SCORE.SYSTEM.CONST>
0

>  <SCORE.SYSTEM.DIHEDRAL>
0

>  <SCORE.SYSTEM.SOLV>
0

>  <SCORE.SYSTEM.norm>
0

>  <SCORE.heavy>
46

>  <SCORE.norm>
-1.16467

>  <RMSD>
0.500

$$$$
lig.pdb
 OpenBabel11021811523D
libRbt.so/2013.1/901 2013/11/27
 46 52  0  0  0  0  0  0  0  0999 V2000
  159.6432   46.2738  143.4728 P   0  0  2  0  0  0  0  0  0  0  0  0
  160.2768   47.6108  143.7899 O   0  0  0  0  0  0  0  0  0  0  0  0
  159.1695   46.0672  142.0571 O   0  0  0  0  0  0  0  0  0  0  0  0
  158.4191   45.9569  144.4659 O   0  0  0  0  0  0  0  0  0  0  0  0
  158.1617   46.7605  145.6100 C   0  0  0  0  0  0  0  0  0  0  0  0
  157.2286   46.0284  146.5603 C   0  0  1  0  0  0  0  0  0  0  0  0
  155.9306   46.5883  146.4201 O   0  0  0  0  0  0  0  0  0  0  0  0
  157.0762   44.5329  146.3132 C   0  0  1  0  0  0  0  0  0  0  0  0
  157.8251   43.8101  147.2793 O   0  0  0  0  0  0  0  0  0  0  0  0
  155.6078   44.2808  146.5725 C   0  0  1  0  0  0  0  0  0  0  0  0
  155.4121   43.9611  147.9515 O   0  0  0  0  0  0  0  0  0  0  0  0
  154.9222   45.5937  146.3285 C   0  0  2  0  0  0  0  0  0  0  0  0
  154.3682   45.6055  144.9538 N   0  0  0  0  0  0  0  0  0  0  0  0
  155.0057   46.0483  143.8561 C   0  0  0  0  0  0  0  0  0  0  0  0
  154.2121   45.9330  142.7643 N   0  0  0  0  0  0  0  0  0  0  0  0
  153.0381   45.4069  143.1563 C   0  0  0  0  0  0  0  0  0  0  0  0
  151.7639   45.0243  142.5036 C   0  0  0  0  0  0  0  0  0  0  0  0
  151.6111   45.1886  141.2693 O   0  0  0  0  0  0  0  0  0  0  0  0
  150.7939   44.5052  143.2758 N   0  0  0  0  0  0  0  0  0  0  0  0
  150.9623   44.3323  144.6004 C   0  0  0  0  0  0  0  0  0  0  0  0
  149.9537   43.8010  145.3269 N   0  0  0  0  0  0  0  0  0  0  0  0
  152.0976   44.6598  145.2582 N   0  0  0  0  0  0  0  0  0  0  0  0
  153.1509   45.1920  144.6023 C   0  0  0  0  0  0  0  0  0  0  0  0
  158.1215   42.2176  147.1691 P   0  0  2  0  0  0  0  0  0  0  0  0
  156.8294   41.4915  146.8836 O   0  0  0  0  0  0  0  0  0  0  0  0
  158.9645   41.8627  148.3796 O   0  0  0  0  0  0  0  0  0  0  0  0
  159.0322   42.1264  145.8380 O   0  0  0  0  0  0  0  0  0  0  0  0
  160.4234   42.4378  145.8999 C   0  0  0  0  0  0  0  0  0  0  0  0
  161.0319   42.7545  144.5303 C   0  0  1  0  0  0  0  0  0  0  0  0
  161.1633   41.5449  143.7804 O   0  0  0  0  0  0  0  0  0  0  0  0
  160.2215   43.7219  143.6703 C   0  0  1  0  0  0  0  0  0  0  0  0
  160.6624   45.0716  143.8123 O   0  0  0  0  0  0  0  0  0  0  0  0
  160.4740   43.1972  142.2692 C   0  0  1  0  0  0  0  0  0  0  0  0
  161.6671   43.7644  141.7208 O   0  0  0  0  0  0  0  0  0  0  0  0
  160.7117   41.7106  142.4336 C   0  0  2  0  0  0  0  0  0  0  0  0
  159.4298   40.9820  142.2668 N   0  0  0  0  0  0  0  0  0  0  0  0
  158.8873   40.1308  143.1600 C   0  0  0  0  0  0  0  0  0  0  0  0
  157.6977   39.6295  142.7256 N   0  0  0  0  0  0  0  0  0  0  0  0
  157.4554   40.1728  141.5221 C   0  0  0  0  0  0  0  0  0  0  0  0
  156.3852   40.0716  140.4974 C   0  0  0  0  0  0  0  0  0  0  0  0
  155.3739   39.3542  140.6545 O   0  0  0  0  0  0  0  0  0  0  0  0
  156.5226   40.8025  139.3898 N   0  0  0  0  0  0  0  0  0  0  0  0
  157.5861   41.5926  139.1767 C   0  0  0  0  0  0  0  0  0  0  0  0
  157.6286   42.2728  138.0213 N   0  0  0  0  0  0  0  0  0  0  0  0
  158.6049   41.7312  140.0571 N   0  0  0  0  0  0  0  0  0  0  0  0
  158.5994   41.0588  141.2272 C   0  0  0  0  0  0  0  0  0  0  0  0
  1  3  2  6  0  0  0
  1 32  1  0  0  0  0
  1  2  1  0  0  0  0
  1  4  1  0  0  0  0
  4  5  1  0  0  0  0
  6  5  1  6  0  0  0
  7  6  1  0  0  0  0
  8  6  1  0  0  0  0
  8 10  1  0  0  0  0
  8  9  1  1  0  0  0
 10 11  1  1  0  0  0
 12 13  1  6  0  0  0
 12  7  1  0  0  0  0
 12 10  1  0  0  0  0
 14 13  1  0  0  0  0
 15 16  1  0  0  0  0
 15 14  2  0  0  0  0
 16 23  2  0  0  0  0
 17 16  1  0  0  0  0
 17 19  1  0  0  0  0
 18 17  2  0  0  0  0
 19 20  2  0  0  0  0
 20 22  1  0  0  0  0
 20 21  1  0  0  0  0
 23 13  1  0  0  0  0
 23 22  1  0  0  0  0
 24 25  2  6  0  0  0
 24  9  1  0  0  0  0
 24 26  1  0  0  0  0
 27 28  1  0  0  0  0
 27 24  1  0  0  0  0
 29 30  1  6  0  0  0
 29 28  1  0  0  0  0
 31 32  1  6  0  0  0
 31 29  1  0  0  0  0
 33 34  1  1  0  0  0
 33 35  1  0  0  0  0
 33 31  1  0  0  0  0
 35 36  1  1  0  0  0
 35 30  1  0  0  0  0
 36 37  1  0  0  0  0
 38 37  2  0  0  0  0
 39 38  1  0  0  0  0
 40 41  2  0  0  0  0
 40 39  1  0  0  0  0
 42 40  1  0  0  0  0
 43 42  2  0  0  0  0
 43 45  1  0  0  0  0
 44 43  1  0  0  0  0
 45 46  1  0  0  0  0
 46 39  2  0  0  0  0
 46 36  1  0  0  0  0
M  END
>  <CHROM.1>
24.37439898,-9.80446010,157.13081816,43.60214079,143.90848947,-0.36732783
-0.17087966,1.02628188

>  <Name>
lig.pdb

>  <RI>
0

>  <Rbt.Current_Directory>
/home/itssahil/PROJECTS/Mol_Feturizer/New_Systems/rnas/4yb0

>  <Rbt.Executable>
rbdock ($Id: //depot/dev/client3/rdock/2013.1/src/exe/rbdock.cxx#4 $)

>  <Rbt.Library>
libRbt.so (2013.1, Build901 2013/11/27)

>  <Rbt.Parameter_File>
/export/apps/rDock/src/rDock_2013.1_src/data/scripts/dock_solv.prm

>  <Rbt.Receptor>
prm/pocket_docking_5.prm

>  <SCORE>
-53.6231

>  <SCORE.INTER>
-53.4723

>  <SCORE.INTER.CONST>
1

>  <SCORE.INTER.POLAR>
0

>  <SCORE.INTER.ROT>
2

>  <SCORE.INTER.SOLV>
31.6147

>  <SCORE.INTER.VDW>
-51.1198

>  <SCORE.INTER.norm>
-1.16244

>  <SCORE.INTRA>
-0.150767

>  <SCORE.INTRA.DIHEDRAL>
-0.0164591

>  <SCORE.INTRA.DIHEDRAL.0>
4.74153

>  <SCORE.INTRA.POLAR>
0

>  <SCORE.INTRA.POLAR.0>
0

>  <SCORE.INTRA.REPUL>
0

>  <SCORE.INTRA.REPUL.0>
0

>  <SCORE.INTRA.SOLV>
0.0115403

>  <SCORE.INTRA.SOLV.lig_0>
-60.4375

>  <SCORE.INTRA.VDW>
-0.148308

>  <SCORE.INTRA.VDW.0>
-1.83689

>  <SCORE.INTRA.norm>
-0.00327755

>  <SCORE.RESTR>
1.8951e-05

>  <SCORE.RESTR.CAVITY>
1.8951e-05

>  <SCORE.RESTR.norm>
4.11979e-07

>  <SCORE.SYSTEM>
0

>  <SCORE.SYSTEM.CONST>
0

>  <SCORE.SYSTEM.DIHEDRAL>
0

>  <SCORE.SYSTEM.SOLV>
0

>  <SCORE.SYSTEM.norm>
0

>  <SCORE.heavy>
46

>  <SCORE.norm>
-1.16572

>  <RMSD>
0.502

$$$$
lig.pdb
 OpenBabel11021811523D
libRbt.so/2013.1/901 2013/11/27
 46 52  0  0  0  0  0  0  0  0999 V2000
  158.6339   42.0756  147.5414 P   0  0  2  0  0  0  0  0  0  0  0  0
  159.5363   41.3489  148.5146 O   0  0  0  0  0  0  0  0  0  0  0  0
  157.2329   41.5419  147.3885 O   0  0  0  0  0  0  0  0  0  0  0  0
  159.3014   42.1666  146.0816 O   0  0  0  0  0  0  0  0  0  0  0  0
  160.6552   41.7945  145.8577 C   0  0  0  0  0  0  0  0  0  0  0  0
  161.1301   42.3400  144.5211 C   0  0  1  0  0  0  0  0  0  0  0  0
  161.1422   41.2686  143.5884 O   0  0  0  0  0  0  0  0  0  0  0  0
  160.2603   43.4295  143.9068 C   0  0  1  0  0  0  0  0  0  0  0  0
  160.8821   44.6939  144.0838 O   0  0  0  0  0  0  0  0  0  0  0  0
  160.2748   43.1015  142.4306 C   0  0  1  0  0  0  0  0  0  0  0  0
  161.3680   43.7726  141.8008 O   0  0  0  0  0  0  0  0  0  0  0  0
  160.5599   41.6302  142.3455 C   0  0  2  0  0  0  0  0  0  0  0  0
  159.2825   40.8951  142.1887 N   0  0  0  0  0  0  0  0  0  0  0  0
  158.7612   40.0318  143.0778 C   0  0  0  0  0  0  0  0  0  0  0  0
  157.5918   39.5236  142.6203 N   0  0  0  0  0  0  0  0  0  0  0  0
  157.3467   40.0637  141.4132 C   0  0  0  0  0  0  0  0  0  0  0  0
  156.2818   39.9581  140.3881 C   0  0  0  0  0  0  0  0  0  0  0  0
  155.3016   39.1966  140.5702 O   0  0  0  0  0  0  0  0  0  0  0  0
  156.4085   40.6973  139.2727 N   0  0  0  0  0  0  0  0  0  0  0  0
  157.4633   41.5120  139.0813 C   0  0  0  0  0  0  0  0  0  0  0  0
  157.5359   42.2358  137.9419 N   0  0  0  0  0  0  0  0  0  0  0  0
  158.4685   41.6551  139.9745 N   0  0  0  0  0  0  0  0  0  0  0  0
  158.4664   40.9691  141.1374 C   0  0  0  0  0  0  0  0  0  0  0  0
  160.1290   46.1050  143.8051 P   0  0  2  0  0  0  0  0  0  0  0  0
  159.4642   46.0530  142.4510 O   0  0  0  0  0  0  0  0  0  0  0  0
  161.1347   47.1908  144.1390 O   0  0  0  0  0  0  0  0  0  0  0  0
  158.9592   46.0988  144.9191 O   0  0  0  0  0  0  0  0  0  0  0  0
  159.2538   46.4585  146.2683 C   0  0  0  0  0  0  0  0  0  0  0  0
  158.1993   45.9702  147.2664 C   0  0  1  0  0  0  0  0  0  0  0  0
  157.0191   46.7654  147.1340 O   0  0  0  0  0  0  0  0  0  0  0  0
  157.7724   44.5139  147.0960 C   0  0  1  0  0  0  0  0  0  0  0  0
  158.5075   43.6319  147.9432 O   0  0  0  0  0  0  0  0  0  0  0  0
  156.3050   44.5609  147.4788 C   0  0  1  0  0  0  0  0  0  0  0  0
  156.1425   44.4066  148.8914 O   0  0  0  0  0  0  0  0  0  0  0  0
  155.8400   45.9563  147.1178 C   0  0  2  0  0  0  0  0  0  0  0  0
  155.2821   45.9529  145.7428 N   0  0  0  0  0  0  0  0  0  0  0  0
  155.8751   46.4783  144.6524 C   0  0  0  0  0  0  0  0  0  0  0  0
  155.1198   46.3073  143.5319 N   0  0  0  0  0  0  0  0  0  0  0  0
  154.0098   45.6479  143.9000 C   0  0  0  0  0  0  0  0  0  0  0  0
  152.7837   45.1538  143.2232 C   0  0  0  0  0  0  0  0  0  0  0  0
  152.5954   45.2916  141.9953 O   0  0  0  0  0  0  0  0  0  0  0  0
  151.8787   44.5226  143.9730 N   0  0  0  0  0  0  0  0  0  0  0  0
  152.0370   44.3440  145.2936 C   0  0  0  0  0  0  0  0  0  0  0  0
  151.0572   43.7077  145.9526 N   0  0  0  0  0  0  0  0  0  0  0  0
  153.1204   44.7722  145.9829 N   0  0  0  0  0  0  0  0  0  0  0  0
  154.1235   45.4206  145.3547 C   0  0  0  0  0  0  0  0  0  0  0  0
  1  3  2  6  0  0  0
  1 32  1  0  0  0  0
  1  2  1  0  0  0  0
  1  4  1  0  0  0  0
  4  5  1  0  0  0  0
  6  5  1  1  0  0  0
  7  6  1  0  0  0  0
  8  6  1  0  0  0  0
  8 10  1  0  0  0  0
  8  9  1  6  0  0  0
 10 11  1  6  0  0  0
 12 13  1  1  0  0  0
 12  7  1  0  0  0  0
 12 10  1  0  0  0  0
 14 13  1  0  0  0  0
 15 16  1  0  0  0  0
 15 14  2  0  0  0  0
 16 23  2  0  0  0  0
 17 16  1  0  0  0  0
 17 19  1  0  0  0  0
 18 17  2  0  0  0  0
 19 20  2  0  0  0  0
 20 22  1  0  0  0  0
 20 21  1  0  0  0  0
 23 13  1  0  0  0  0
 23 22  1  0  0  0  0
 24 25  2  6  0  0  0
 24  9  1  0  0  0  0
 24 26  1  0  0  0  0
 27 28  1  0  0  0  0
 27 24  1  0  0  0  0
 29 30  1  6  0  0  0
 29 28  1  0  0  0  0
 31 32  1  1  0  0  0
 31 29  1  0  0  0  0
 33 34  1  1  0  0  0
 33 35  1  0  0  0  0
 33 31  1  0  0  0  0
 35 36  1  6  0  0  0
 35 30  1  0  0  0  0
 36 37  1  0  0  0  0
 38 37  2  0  0  0  0
 39 38  1  0  0  0  0
 40 41  2  0  0  0  0
 40 39  1  0  0  0  0
 42 40  1  0  0  0  0
 43 42  2  0  0  0  0
 43 45  1  0  0  0  0
 44 43  1  0  0  0  0
 45 46  1  0  0  0  0
 46 39  2  0  0  0  0
 46 36  1  0  0  0  0
M  END
>  <CHROM.1>
0.13432069,7.85437825,157.57783653,43.55690970,144.26480261,-2.08475746,0.17773340
-2.11792793

>  <Name>
lig.pdb

>  <RI>
0

>  <Rbt.Current_Directory>
/home/itssahil/PROJECTS/Mol_Feturizer/New_Systems/rnas/4yb0

>  <Rbt.Executable>
rbdock ($Id: //depot/dev/client3/rdock/2013.1/src/exe/rbdock.cxx#4 $)

>  <Rbt.Library>
libRbt.so (2013.1, Build901 2013/11/27)

>  <Rbt.Parameter_File>
/export/apps/rDock/src/rDock_2013.1_src/data/scripts/dock_solv.prm

>  <Rbt.Receptor>
prm/pocket_docking_6.prm

>  <SCORE>
-50.376

>  <SCORE.INTER>
-50.3988

>  <SCORE.INTER.CONST>
1

>  <SCORE.INTER.POLAR>
0

>  <SCORE.INTER.ROT>
2

>  <SCORE.INTER.SOLV>
28.7572

>  <SCORE.INTER.VDW>
-48.1182

>  <SCORE.INTER.norm>
-1.09563

>  <SCORE.INTRA>
0.0227631

>  <SCORE.INTRA.DIHEDRAL>
0.0798625

>  <SCORE.INTRA.DIHEDRAL.0>
4.74153

>  <SCORE.INTRA.POLAR>
0

>  <SCORE.INTRA.POLAR.0>
0

>  <SCORE.INTRA.REPUL>
0

>  <SCORE.INTRA.REPUL.0>
0

>  <SCORE.INTRA.SOLV>
0.104254

>  <SCORE.INTRA.SOLV.lig_0>
-60.4375

>  <SCORE.INTRA.VDW>
-0.0692953

>  <SCORE.INTRA.VDW.0>
-1.83689

>  <SCORE.INTRA.norm>
0.00049485

>  <SCORE.RESTR>
0

>  <SCORE.RESTR.CAVITY>
0

>  <SCORE.RESTR.norm>
0

>  <SCORE.SYSTEM>
0

>  <SCORE.SYSTEM.CONST>
0

>  <SCORE.SYSTEM.DIHEDRAL>
0

>  <SCORE.SYSTEM.SOLV>
0

>  <SCORE.SYSTEM.norm>
0

>  <SCORE.heavy>
46

>  <SCORE.norm>
-1.09513

>  <RMSD>
0.504

$$$$
lig.pdb
 OpenBabel11021811523D
libRbt.so/2013.1/901 2013/11/27
 46 52  0  0  0  0  0  0  0  0999 V2000
  158.5964   42.0723  147.5376 P   0  0  2  0  0  0  0  0  0  0  0  0
  159.4825   41.3346  148.5176 O   0  0  0  0  0  0  0  0  0  0  0  0
  157.1923   41.5517  147.3692 O   0  0  0  0  0  0  0  0  0  0  0  0
  159.2793   42.1613  146.0847 O   0  0  0  0  0  0  0  0  0  0  0  0
  160.6318   41.7775  145.8733 C   0  0  0  0  0  0  0  0  0  0  0  0
  161.1250   42.3225  144.5430 C   0  0  1  0  0  0  0  0  0  0  0  0
  161.1367   41.2536  143.6074 O   0  0  0  0  0  0  0  0  0  0  0  0
  160.2713   43.4216  143.9234 C   0  0  1  0  0  0  0  0  0  0  0  0
  160.9027   44.6797  144.1102 O   0  0  0  0  0  0  0  0  0  0  0  0
  160.2976   43.0977  142.4464 C   0  0  1  0  0  0  0  0  0  0  0  0
  161.4030   43.7605  141.8295 O   0  0  0  0  0  0  0  0  0  0  0  0
  160.5701   41.6240  142.3598 C   0  0  2  0  0  0  0  0  0  0  0  0
  159.2877   40.9011  142.1882 N   0  0  0  0  0  0  0  0  0  0  0  0
  158.7533   40.0345  143.0663 C   0  0  0  0  0  0  0  0  0  0  0  0
  157.5828   39.5400  142.5966 N   0  0  0  0  0  0  0  0  0  0  0  0
  157.3503   40.0926  141.3927 C   0  0  0  0  0  0  0  0  0  0  0  0
  156.2916   40.0048  140.3596 C   0  0  0  0  0  0  0  0  0  0  0  0
  155.3039   39.2499  140.5286 O   0  0  0  0  0  0  0  0  0  0  0  0
  156.4319   40.7524  139.2515 N   0  0  0  0  0  0  0  0  0  0  0  0
  157.4947   41.5599  139.0742 C   0  0  0  0  0  0  0  0  0  0  0  0
  157.5810   42.2928  137.9417 N   0  0  0  0  0  0  0  0  0  0  0  0
  158.4950   41.6869  139.9753 N   0  0  0  0  0  0  0  0  0  0  0  0
  158.4794   40.9909  141.1322 C   0  0  0  0  0  0  0  0  0  0  0  0
  160.1652   46.0984  143.8282 P   0  0  2  0  0  0  0  0  0  0  0  0
  159.5136   46.0563  142.4673 O   0  0  0  0  0  0  0  0  0  0  0  0
  161.1774   47.1740  144.1753 O   0  0  0  0  0  0  0  0  0  0  0  0
  158.9844   46.0997  144.9304 O   0  0  0  0  0  0  0  0  0  0  0  0
  159.2687   46.4529  146.2835 C   0  0  0  0  0  0  0  0  0  0  0  0
  158.2000   45.9713  147.2696 C   0  0  1  0  0  0  0  0  0  0  0  0
  157.0284   46.7776  147.1278 O   0  0  0  0  0  0  0  0  0  0  0  0
  157.7616   44.5195  147.0907 C   0  0  1  0  0  0  0  0  0  0  0  0
  158.4802   43.6284  147.9426 O   0  0  0  0  0  0  0  0  0  0  0  0
  156.2909   44.5788  147.4590 C   0  0  1  0  0  0  0  0  0  0  0  0
  156.1129   44.4219  148.8696 O   0  0  0  0  0  0  0  0  0  0  0  0
  155.8423   45.9793  147.0976 C   0  0  2  0  0  0  0  0  0  0  0  0
  155.2980   45.9849  145.7170 N   0  0  0  0  0  0  0  0  0  0  0  0
  155.9098   46.5017  144.6329 C   0  0  0  0  0  0  0  0  0  0  0  0
  155.1632   46.3425  143.5049 N   0  0  0  0  0  0  0  0  0  0  0  0
  154.0398   45.6999  143.8615 C   0  0  0  0  0  0  0  0  0  0  0  0
  152.8131   45.2248  143.1722 C   0  0  0  0  0  0  0  0  0  0  0  0
  152.6391   45.3659  141.9426 O   0  0  0  0  0  0  0  0  0  0  0  0
  151.8911   44.6072  143.9127 N   0  0  0  0  0  0  0  0  0  0  0  0
  152.0335   44.4257  145.2347 C   0  0  0  0  0  0  0  0  0  0  0  0
  151.0376   43.8042  145.8836 N   0  0  0  0  0  0  0  0  0  0  0  0
  153.1164   44.8371  145.9350 N   0  0  0  0  0  0  0  0  0  0  0  0
  154.1354   45.4704  145.3171 C   0  0  0  0  0  0  0  0  0  0  0  0
  1  3  2  6  0  0  0
  1 32  1  0  0  0  0
  1  2  1  0  0  0  0
  1  4  1  0  0  0  0
  4  5  1  0  0  0  0
  6  5  1  1  0  0  0
  7  6  1  0  0  0  0
  8  6  1  0  0  0  0
  8 10  1  0  0  0  0
  8  9  1  6  0  0  0
 10 11  1  6  0  0  0
 12 13  1  1  0  0  0
 12  7  1  0  0  0  0
 12 10  1  0  0  0  0
 14 13  1  0  0  0  0
 15 16  1  0  0  0  0
 15 14  2  0  0  0  0
 16 23  2  0  0  0  0
 17 16  1  0  0  0  0
 17 19  1  0  0  0  0
 18 17  2  0  0  0  0
 19 20  2  0  0  0  0
 20 22  1  0  0  0  0
 20 21  1  0  0  0  0
 23 13  1  0  0  0  0
 23 22  1  0  0  0  0
 24 25  2  6  0  0  0
 24  9  1  0  0  0  0
 24 26  1  0  0  0  0
 27 28  1  0  0  0  0
 27 24  1  0  0  0  0
 29 30  1  6  0  0  0
 29 28  1  0  0  0  0
 31 32  1  1  0  0  0
 31 29  1  0  0  0  0
 33 34  1  1  0  0  0
 33 35  1  0  0  0  0
 33 31  1  0  0  0  0
 35 36  1  6  0  0  0
 35 30  1  0  0  0  0
 36 37  1  0  0  0  0
 38 37  2  0  0  0  0
 39 38  1  0  0  0  0
 40 41  2  0  0  0  0
 40 39  1  0  0  0  0
 42 40  1  0  0  0  0
 43 42  2  0  0  0  0
 43 45  1  0  0  0  0
 44 43  1  0  0  0  0
 45 46  1  0  0  0  0
 46 39  2  0  0  0  0
 46 36  1  0  0  0  0
M  END
>  <CHROM.1>
-0.24766076,8.23252048,157.58470306,43.57571888,144.25624796,-2.09714463
0.19256703,-2.11351939

>  <Name>
lig.pdb

>  <RI>
0

>  <Rbt.Current_Directory>
/home/itssahil/PROJECTS/Mol_Feturizer/New_Systems/rnas/4yb0

>  <Rbt.Executable>
rbdock ($Id: //depot/dev/client3/rdock/2013.1/src/exe/rbdock.cxx#4 $)

>  <Rbt.Library>
libRbt.so (2013.1, Build901 2013/11/27)

>  <Rbt.Parameter_File>
/export/apps/rDock/src/rDock_2013.1_src/data/scripts/dock_solv.prm

>  <Rbt.Receptor>
prm/pocket_docking_4.prm

>  <SCORE>
-50.4318

>  <SCORE.INTER>
-50.458

>  <SCORE.INTER.CONST>
1

>  <SCORE.INTER.POLAR>
0

>  <SCORE.INTER.ROT>
2

>  <SCORE.INTER.SOLV>
28.8702

>  <SCORE.INTER.VDW>
-48.1954

>  <SCORE.INTER.norm>
-1.09691

>  <SCORE.INTRA>
0.0261668

>  <SCORE.INTRA.DIHEDRAL>
0.0818765

>  <SCORE.INTRA.DIHEDRAL.0>
4.74153

>  <SCORE.INTRA.POLAR>
0

>  <SCORE.INTRA.POLAR.0>
0

>  <SCORE.INTRA.REPUL>
0

>  <SCORE.INTRA.REPUL.0>
0

>  <SCORE.INTRA.SOLV>
0.106343

>  <SCORE.INTRA.SOLV.lig_0>
-60.4375

>  <SCORE.INTRA.VDW>
-0.067943

>  <SCORE.INTRA.VDW.0>
-1.83689

>  <SCORE.INTRA.norm>
0.000568843

>  <SCORE.RESTR>
0

>  <SCORE.RESTR.CAVITY>
0

>  <SCORE.RESTR.norm>
0

>  <SCORE.SYSTEM>
0

>  <SCORE.SYSTEM.CONST>
0

>  <SCORE.SYSTEM.DIHEDRAL>
0

>  <SCORE.SYSTEM.SOLV>
0

>  <SCORE.SYSTEM.norm>
0

>  <SCORE.heavy>
46

>  <SCORE.norm>
-1.09634

>  <RMSD>
0.506

$$$$
lig.pdb
 OpenBabel11021811523D
libRbt.so/2013.1/901 2013/11/27
 46 52  0  0  0  0  0  0  0  0999 V2000
  159.6379   46.2783  143.4977 P   0  0  2  0  0  0  0  0  0  0  0  0
  160.2751   47.6131  143.8170 O   0  0  0  0  0  0  0  0  0  0  0  0
  159.1747   46.0707  142.0787 O   0  0  0  0  0  0  0  0  0  0  0  0
  158.4043   45.9692  144.4815 O   0  0  0  0  0  0  0  0  0  0  0  0
  158.1414   46.7766  145.6218 C   0  0  0  0  0  0  0  0  0  0  0  0
  157.1973   46.0509  146.5661 C   0  0  1  0  0  0  0  0  0  0  0  0
  155.9031   46.6165  146.4142 O   0  0  0  0  0  0  0  0  0  0  0  0
  157.0400   44.5556  146.3211 C   0  0  1  0  0  0  0  0  0  0  0  0
  157.7777   43.8315  147.2948 O   0  0  0  0  0  0  0  0  0  0  0  0
  155.5684   44.3108  146.5691 C   0  0  1  0  0  0  0  0  0  0  0  0
  155.3601   43.9951  147.9472 O   0  0  0  0  0  0  0  0  0  0  0  0
  154.8909   45.6263  146.3167 C   0  0  2  0  0  0  0  0  0  0  0  0
  154.3481   45.6376  144.9375 N   0  0  0  0  0  0  0  0  0  0  0  0
  154.9953   46.0779  143.8445 C   0  0  0  0  0  0  0  0  0  0  0  0
  154.2104   45.9628  142.7464 N   0  0  0  0  0  0  0  0  0  0  0  0
  153.0322   45.4395  143.1295 C   0  0  0  0  0  0  0  0  0  0  0  0
  151.7625   45.0585  142.4670 C   0  0  0  0  0  0  0  0  0  0  0  0
  151.6201   45.2218  141.2312 O   0  0  0  0  0  0  0  0  0  0  0  0
  150.7853   44.5423  143.2319 N   0  0  0  0  0  0  0  0  0  0  0  0
  150.9427   44.3706  144.5580 C   0  0  0  0  0  0  0  0  0  0  0  0
  149.9272   43.8421  145.2770 N   0  0  0  0  0  0  0  0  0  0  0  0
  152.0732   44.6966  145.2246 N   0  0  0  0  0  0  0  0  0  0  0  0
  153.1328   45.2261  144.5766 C   0  0  0  0  0  0  0  0  0  0  0  0
  158.0676   42.2374  147.1905 P   0  0  2  0  0  0  0  0  0  0  0  0
  156.7745   41.5167  146.8962 O   0  0  0  0  0  0  0  0  0  0  0  0
  158.8992   41.8814  148.4086 O   0  0  0  0  0  0  0  0  0  0  0  0
  158.9886   42.1391  145.8670 O   0  0  0  0  0  0  0  0  0  0  0  0
  160.3807   42.4442  145.9395 C   0  0  0  0  0  0  0  0  0  0  0  0
  161.0017   42.7551  144.5741 C   0  0  1  0  0  0  0  0  0  0  0  0
  161.1336   41.5432  143.8280 O   0  0  0  0  0  0  0  0  0  0  0  0
  160.2028   43.7242  143.7055 C   0  0  1  0  0  0  0  0  0  0  0  0
  160.6487   45.0722  143.8481 O   0  0  0  0  0  0  0  0  0  0  0  0
  160.4642   43.1952  142.3076 C   0  0  1  0  0  0  0  0  0  0  0  0
  161.6643   43.7557  141.7677 O   0  0  0  0  0  0  0  0  0  0  0  0
  160.6937   41.7079  142.4772 C   0  0  2  0  0  0  0  0  0  0  0  0
  159.4097   40.9848  142.3017 N   0  0  0  0  0  0  0  0  0  0  0  0
  158.9027   40.0664  143.1479 C   0  0  0  0  0  0  0  0  0  0  0  0
  157.7007   39.5904  142.7192 N   0  0  0  0  0  0  0  0  0  0  0  0
  157.4139   40.2193  141.5684 C   0  0  0  0  0  0  0  0  0  0  0  0
  156.3087   40.1867  140.5768 C   0  0  0  0  0  0  0  0  0  0  0  0
  155.3066   39.4528  140.7154 O   0  0  0  0  0  0  0  0  0  0  0  0
  156.4039   40.9982  139.5223 N   0  0  0  0  0  0  0  0  0  0  0  0
  157.4559   41.8093  139.3313 C   0  0  0  0  0  0  0  0  0  0  0  0
  157.4548   42.5731  138.2286 N   0  0  0  0  0  0  0  0  0  0  0  0
  158.5045   41.8894  140.1835 N   0  0  0  0  0  0  0  0  0  0  0  0
  158.5429   41.1325  141.3002 C   0  0  0  0  0  0  0  0  0  0  0  0
  1  3  2  6  0  0  0
  1 32  1  0  0  0  0
  1  2  1  0  0  0  0
  1  4  1  0  0  0  0
  4  5  1  0  0  0  0
  6  5  1  6  0  0  0
  7  6  1  0  0  0  0
  8  6  1  0  0  0  0
  8 10  1  0  0  0  0
  8  9  1  1  0  0  0
 10 11  1  1  0  0  0
 12 13  1  6  0  0  0
 12  7  1  0  0  0  0
 12 10  1  0  0  0  0
 14 13  1  0  0  0  0
 15 16  1  0  0  0  0
 15 14  2  0  0  0  0
 16 23  2  0  0  0  0
 17 16  1  0  0  0  0
 17 19  1  0  0  0  0
 18 17  2  0  0  0  0
 19 20  2  0  0  0  0
 20 22  1  0  0  0  0
 20 21  1  0  0  0  0
 23 13  1  0  0  0  0
 23 22  1  0  0  0  0
 24 25  2  6  0  0  0
 24  9  1  0  0  0  0
 24 26  1  0  0  0  0
 27 28  1  0  0  0  0
 27 24  1  0  0  0  0
 29 30  1  6  0  0  0
 29 28  1  0  0  0  0
 31 32  1  6  0  0  0
 31 29  1  0  0  0  0
 33 34  1  1  0  0  0
 33 35  1  0  0  0  0
 33 31  1  0  0  0  0
 35 36  1  1  0  0  0
 35 30  1  0  0  0  0
 36 37  1  0  0  0  0
 38 37  2  0  0  0  0
 39 38  1  0  0  0  0
 40 41  2  0  0  0  0
 40 39  1  0  0  0  0
 42 40  1  0  0  0  0
 43 42  2  0  0  0  0
 43 45  1  0  0  0  0
 44 43  1  0  0  0  0
 45 46  1  0  0  0  0
 46 39  2  0  0  0  0
 46 36  1  0  0  0  0
M  END
>  <CHROM.1>
24.20974049,-14.85465488,157.09696399,43.63846892,143.93193345,-0.31884598
-0.18188182,1.03381451

>  <Name>
lig.pdb

>  <RI>
0

>  <Rbt.Current_Directory>
/home/itssahil/PROJECTS/Mol_Feturizer/New_Systems/rnas/4yb0

>  <Rbt.Executable>
rbdock ($Id: //depot/dev/client3/rdock/2013.1/src/exe/rbdock.cxx#4 $)

>  <Rbt.Library>
libRbt.so (2013.1, Build901 2013/11/27)

>  <Rbt.Parameter_File>
/export/apps/rDock/src/rDock_2013.1_src/data/scripts/dock_solv.prm

>  <Rbt.Receptor>
prm/pocket_docking_4.prm

>  <SCORE>
-53.6387

>  <SCORE.INTER>
-53.5127

>  <SCORE.INTER.CONST>
1

>  <SCORE.INTER.POLAR>
0

>  <SCORE.INTER.ROT>
2

>  <SCORE.INTER.SOLV>
31.5518

>  <SCORE.INTER.VDW>
-51.1257

>  <SCORE.INTER.norm>
-1.16332

>  <SCORE.INTRA>
-0.125979

>  <SCORE.INTRA.DIHEDRAL>
-0.0287598

>  <SCORE.INTRA.DIHEDRAL.0>
4.74153

>  <SCORE.INTRA.POLAR>
0

>  <SCORE.INTRA.POLAR.0>
0

>  <SCORE.INTRA.REPUL>
0

>  <SCORE.INTRA.REPUL.0>
0

>  <SCORE.INTRA.SOLV>
-0.00526667

>  <SCORE.INTRA.SOLV.lig_0>
-60.4375

>  <SCORE.INTRA.VDW>
-0.108966

>  <SCORE.INTRA.VDW.0>
-1.83689

>  <SCORE.INTRA.norm>
-0.00273867

>  <SCORE.RESTR>
0

>  <SCORE.RESTR.CAVITY>
0

>  <SCORE.RESTR.norm>
0

>  <SCORE.SYSTEM>
0

>  <SCORE.SYSTEM.CONST>
0

>  <SCORE.SYSTEM.DIHEDRAL>
0

>  <SCORE.SYSTEM.SOLV>
0

>  <SCORE.SYSTEM.norm>
0

>  <SCORE.heavy>
46

>  <SCORE.norm>
-1.16606

>  <RMSD>
0.508

$$$$
lig.pdb
 OpenBabel11021811523D
libRbt.so/2013.1/901 2013/11/27
 46 52  0  0  0  0  0  0  0  0999 V2000
  159.6414   46.2899  143.5112 P   0  0  2  0  0  0  0  0  0  0  0  0
  160.2803   47.6232  143.8334 O   0  0  0  0  0  0  0  0  0  0  0  0
  159.1871   46.0822  142.0894 O   0  0  0  0  0  0  0  0  0  0  0  0
  158.4005   45.9853  144.4872 O   0  0  0  0  0  0  0  0  0  0  0  0
  158.1324   46.7945  145.6249 C   0  0  0  0  0  0  0  0  0  0  0  0
  157.1800   46.0725  146.5637 C   0  0  1  0  0  0  0  0  0  0  0  0
  155.8884   46.6416  146.4027 O   0  0  0  0  0  0  0  0  0  0  0  0
  157.0200   44.5773  146.3191 C   0  0  1  0  0  0  0  0  0  0  0  0
  157.7492   43.8522  147.2983 O   0  0  0  0  0  0  0  0  0  0  0  0
  155.5462   44.3370  146.5576 C   0  0  1  0  0  0  0  0  0  0  0  0
  155.3279   44.0233  147.9345 O   0  0  0  0  0  0  0  0  0  0  0  0
  154.8741   45.6542  146.2994 C   0  0  2  0  0  0  0  0  0  0  0  0
  154.3404   45.6656  144.9167 N   0  0  0  0  0  0  0  0  0  0  0  0
  154.9799   46.1415  143.8341 C   0  0  0  0  0  0  0  0  0  0  0  0
  154.2066   46.0149  142.7290 N   0  0  0  0  0  0  0  0  0  0  0  0
  153.0440   45.4478  143.0969 C   0  0  0  0  0  0  0  0  0  0  0  0
  151.7922   45.0338  142.4204 C   0  0  0  0  0  0  0  0  0  0  0  0
  151.6527   45.2084  141.1859 O   0  0  0  0  0  0  0  0  0  0  0  0
  150.8276   44.4754  143.1716 N   0  0  0  0  0  0  0  0  0  0  0  0
  150.9817   44.2915  144.4965 C   0  0  0  0  0  0  0  0  0  0  0  0
  149.9795   43.7202  145.2013 N   0  0  0  0  0  0  0  0  0  0  0  0
  152.0963   44.6460  145.1753 N   0  0  0  0  0  0  0  0  0  0  0  0
  153.1419   45.2188  144.5418 C   0  0  0  0  0  0  0  0  0  0  0  0
  158.0353   42.2572  147.1975 P   0  0  2  0  0  0  0  0  0  0  0  0
  156.7422   41.5398  146.8954 O   0  0  0  0  0  0  0  0  0  0  0  0
  158.8578   41.9000  148.4214 O   0  0  0  0  0  0  0  0  0  0  0  0
  158.9647   42.1549  145.8803 O   0  0  0  0  0  0  0  0  0  0  0  0
  160.3572   42.4562  145.9617 C   0  0  0  0  0  0  0  0  0  0  0  0
  160.9881   42.7639  144.6001 C   0  0  1  0  0  0  0  0  0  0  0  0
  161.1215   41.5509  143.8560 O   0  0  0  0  0  0  0  0  0  0  0  0
  160.1977   43.7344  143.7253 C   0  0  1  0  0  0  0  0  0  0  0  0
  160.6465   45.0812  143.8695 O   0  0  0  0  0  0  0  0  0  0  0  0
  160.4668   43.2033  142.3297 C   0  0  1  0  0  0  0  0  0  0  0  0
  161.6721   43.7598  141.7972 O   0  0  0  0  0  0  0  0  0  0  0  0
  160.6910   41.7155  142.5023 C   0  0  2  0  0  0  0  0  0  0  0  0
  159.4062   40.9959  142.3190 N   0  0  0  0  0  0  0  0  0  0  0  0
  158.8940   40.0751  143.1595 C   0  0  0  0  0  0  0  0  0  0  0  0
  157.6926   39.6034  142.7243 N   0  0  0  0  0  0  0  0  0  0  0  0
  157.4115   40.2376  141.5750 C   0  0  0  0  0  0  0  0  0  0  0  0
  156.3100   40.2114  140.5791 C   0  0  0  0  0  0  0  0  0  0  0  0
  155.3059   39.4790  140.7110 O   0  0  0  0  0  0  0  0  0  0  0  0
  156.4110   41.0269  139.5282 N   0  0  0  0  0  0  0  0  0  0  0  0
  157.4654   41.8364  139.3444 C   0  0  0  0  0  0  0  0  0  0  0  0
  157.4701   42.6046  138.2448 N   0  0  0  0  0  0  0  0  0  0  0  0
  158.5109   41.9109  140.2010 N   0  0  0  0  0  0  0  0  0  0  0  0
  158.5435   41.1494  141.3147 C   0  0  0  0  0  0  0  0  0  0  0  0
  1  3  2  6  0  0  0
  1 32  1  0  0  0  0
  1  2  1  0  0  0  0
  1  4  1  0  0  0  0
  4  5  1  0  0  0  0
  6  5  1  6  0  0  0
  7  6  1  0  0  0  0
  8  6  1  0  0  0  0
  8 10  1  0  0  0  0
  8  9  1  1  0  0  0
 10 11  1  1  0  0  0
 12 13  1  6  0  0  0
 12  7  1  0  0  0  0
 12 10  1  0  0  0  0
 14 13  1  0  0  0  0
 15 16  1  0  0  0  0
 15 14  2  0  0  0  0
 16 23  2  0  0  0  0
 17 16  1  0  0  0  0
 17 19  1  0  0  0  0
 18 17  2  0  0  0  0
 19 20  2  0  0  0  0
 20 22  1  0  0  0  0
 20 21  1  0  0  0  0
 23 13  1  0  0  0  0
 23 22  1  0  0  0  0
 24 25  2  6  0  0  0
 24  9  1  0  0  0  0
 24 26  1  0  0  0  0
 27 28  1  0  0  0  0
 27 24  1  0  0  0  0
 29 30  1  6  0  0  0
 29 28  1  0  0  0  0
 31 32  1  6  0  0  0
 31 29  1  0  0  0  0
 33 34  1  1  0  0  0
 33 35  1  0  0  0  0
 33 31  1  0  0  0  0
 35 36  1  1  0  0  0
 35 30  1  0  0  0  0
 36 37  1  0  0  0  0
 38 37  2  0  0  0  0
 39 38  1  0  0  0  0
 40 41  2  0  0  0  0
 40 39  1  0  0  0  0
 42 40  1  0  0  0  0
 43 42  2  0  0  0  0
 43 45  1  0  0  0  0
 44 43  1  0  0  0  0
 45 46  1  0  0  0  0
 46 39  2  0  0  0  0
 46 36  1  0  0  0  0
M  END
>  <CHROM.1>
21.99287147,-15.18561538,157.09383095,43.64781287,143.93033729,-0.30567820
-0.17973205,1.03135527

>  <Name>
lig.pdb

>  <RI>
0

>  <Rbt.Current_Directory>
/home/itssahil/PROJECTS/Mol_Feturizer/New_Systems/rnas/4yb0

>  <Rbt.Executable>
rbdock ($Id: //depot/dev/client3/rdock/2013.1/src/exe/rbdock.cxx#4 $)

>  <Rbt.Library>
libRbt.so (2013.1, Build901 2013/11/27)

>  <Rbt.Parameter_File>
/export/apps/rDock/src/rDock_2013.1_src/data/scripts/dock_solv.prm

>  <Rbt.Receptor>
prm/pocket_docking_3.prm

>  <SCORE>
-53.5733

>  <SCORE.INTER>
-53.4847

>  <SCORE.INTER.CONST>
1

>  <SCORE.INTER.POLAR>
0

>  <SCORE.INTER.ROT>
2

>  <SCORE.INTER.SOLV>
31.172

>  <SCORE.INTER.VDW>
-50.9805

>  <SCORE.INTER.norm>
-1.16271

>  <SCORE.INTRA>
-0.0886715

>  <SCORE.INTRA.DIHEDRAL>
-0.0276959

>  <SCORE.INTRA.DIHEDRAL.0>
4.74153

>  <SCORE.INTRA.POLAR>
0

>  <SCORE.INTRA.POLAR.0>
0

>  <SCORE.INTRA.REPUL>
0

>  <SCORE.INTRA.REPUL.0>
0

>  <SCORE.INTRA.SOLV>
-0.00880472

>  <SCORE.INTRA.SOLV.lig_0>
-60.4375

>  <SCORE.INTRA.VDW>
-0.0704212

>  <SCORE.INTRA.VDW.0>
-1.83689

>  <SCORE.INTRA.norm>
-0.00192764

>  <SCORE.RESTR>
0

>  <SCORE.RESTR.CAVITY>
0

>  <SCORE.RESTR.norm>
0

>  <SCORE.SYSTEM>
0

>  <SCORE.SYSTEM.CONST>
0

>  <SCORE.SYSTEM.DIHEDRAL>
0

>  <SCORE.SYSTEM.SOLV>
0

>  <SCORE.SYSTEM.norm>
0

>  <SCORE.heavy>
46

>  <SCORE.norm>
-1.16464

>  <RMSD>
0.510

$$$$
lig.pdb
 OpenBabel11021811523D
libRbt.so/2013.1/901 2013/11/27
 46 52  0  0  0  0  0  0  0  0999 V2000
  158.6485   42.1082  147.5007 P   0  0  2  0  0  0  0  0  0  0  0  0
  159.5447   41.3722  148.4726 O   0  0  0  0  0  0  0  0  0  0  0  0
  157.2428   41.5871  147.3475 O   0  0  0  0  0  0  0  0  0  0  0  0
  159.3164   42.1954  146.0408 O   0  0  0  0  0  0  0  0  0  0  0  0
  160.6667   41.8117  145.8160 C   0  0  0  0  0  0  0  0  0  0  0  0
  161.1459   42.3548  144.4799 C   0  0  1  0  0  0  0  0  0  0  0  0
  161.1483   41.2847  143.5457 O   0  0  0  0  0  0  0  0  0  0  0  0
  160.2857   43.4529  143.8675 C   0  0  1  0  0  0  0  0  0  0  0  0
  160.9187   44.7114  144.0461 O   0  0  0  0  0  0  0  0  0  0  0  0
  160.2968   43.1269  142.3909 C   0  0  1  0  0  0  0  0  0  0  0  0
  161.3957   43.7891  141.7616 O   0  0  0  0  0  0  0  0  0  0  0  0
  160.5689   41.6532  142.3035 C   0  0  2  0  0  0  0  0  0  0  0  0
  159.2849   40.9297  142.1461 N   0  0  0  0  0  0  0  0  0  0  0  0
  158.7564   40.0697  143.0341 C   0  0  0  0  0  0  0  0  0  0  0  0
  157.5823   39.5724  142.5763 N   0  0  0  0  0  0  0  0  0  0  0  0
  157.3416   40.1165  141.3701 C   0  0  0  0  0  0  0  0  0  0  0  0
  156.2755   40.0219  140.3452 C   0  0  0  0  0  0  0  0  0  0  0  0
  155.2887   39.2687  140.5266 O   0  0  0  0  0  0  0  0  0  0  0  0
  156.4083   40.7616  139.2309 N   0  0  0  0  0  0  0  0  0  0  0  0
  157.4701   41.5673  139.0403 C   0  0  0  0  0  0  0  0  0  0  0  0
  157.5488   42.2921  137.9020 N   0  0  0  0  0  0  0  0  0  0  0  0
  158.4769   41.7002  139.9334 N   0  0  0  0  0  0  0  0  0  0  0  0
  158.4692   41.0124  141.0953 C   0  0  0  0  0  0  0  0  0  0  0  0
  160.1779   46.1295  143.7696 P   0  0  2  0  0  0  0  0  0  0  0  0
  159.5124   46.0854  142.4157 O   0  0  0  0  0  0  0  0  0  0  0  0
  161.1933   47.2059  144.1048 O   0  0  0  0  0  0  0  0  0  0  0  0
  159.0085   46.1321  144.8840 O   0  0  0  0  0  0  0  0  0  0  0  0
  159.3067   46.4872  146.2336 C   0  0  0  0  0  0  0  0  0  0  0  0
  158.2482   46.0068  147.2314 C   0  0  1  0  0  0  0  0  0  0  0  0
  157.0751   46.8127  147.1004 O   0  0  0  0  0  0  0  0  0  0  0  0
  157.8084   44.5547  147.0590 C   0  0  1  0  0  0  0  0  0  0  0  0
  158.5360   43.6649  147.9047 O   0  0  0  0  0  0  0  0  0  0  0  0
  156.3416   44.6141  147.4424 C   0  0  1  0  0  0  0  0  0  0  0  0
  156.1782   44.4592  148.8549 O   0  0  0  0  0  0  0  0  0  0  0  0
  155.8889   46.0140  147.0836 C   0  0  2  0  0  0  0  0  0  0  0  0
  155.3305   46.0176  145.7087 N   0  0  0  0  0  0  0  0  0  0  0  0
  155.9104   46.5726  144.6260 C   0  0  0  0  0  0  0  0  0  0  0  0
  155.1588   46.4001  143.5033 N   0  0  0  0  0  0  0  0  0  0  0  0
  154.0649   45.7095  143.8619 C   0  0  0  0  0  0  0  0  0  0  0  0
  152.8504   45.1966  143.1781 C   0  0  0  0  0  0  0  0  0  0  0  0
  152.6583   45.3478  141.9524 O   0  0  0  0  0  0  0  0  0  0  0  0
  151.9609   44.5334  143.9187 N   0  0  0  0  0  0  0  0  0  0  0  0
  152.1240   44.3393  145.2365 C   0  0  0  0  0  0  0  0  0  0  0  0
  151.1597   43.6707  145.8864 N   0  0  0  0  0  0  0  0  0  0  0  0
  153.1973   44.7829  145.9319 N   0  0  0  0  0  0  0  0  0  0  0  0
  154.1846   45.4638  145.3130 C   0  0  0  0  0  0  0  0  0  0  0  0
  1  3  2  6  0  0  0
  1 32  1  0  0  0  0
  1  2  1  0  0  0  0
  1  4  1  0  0  0  0
  4  5  1  0  0  0  0
  6  5  1  1  0  0  0
  7  6  1  0  0  0  0
  8  6  1  0  0  0  0
  8 10  1  0  0  0  0
  8  9  1  6  0  0  0
 10 11  1  6  0  0  0
 12 13  1  1  0  0  0
 12  7  1  0  0  0  0
 12 10  1  0  0  0  0
 14 13  1  0  0  0  0
 15 16  1  0  0  0  0
 15 14  2  0  0  0  0
 16 23  2  0  0  0  0
 17 16  1  0  0  0  0
 17 19  1  0  0  0  0
 18 17  2  0  0  0  0
 19 20  2  0  0  0  0
 20 22  1  0  0  0  0
 20 21  1  0  0  0  0
 23 13  1  0  0  0  0
 23 22  1  0  0  0  0
 24 25  2  6  0  0  0
 24  9  1  0  0  0  0
 24 26  1  0  0  0  0
 27 28  1  0  0  0  0
 27 24  1  0  0  0  0
 29 30  1  6  0  0  0
 29 28  1  0  0  0  0
 31 32  1  1  0  0  0
 31 29  1  0  0  0  0
 33 34  1  1  0  0  0
 33 35  1  0  0  0  0
 33 31  1  0  0  0  0
 35 36  1  6  0  0  0
 35 30  1  0  0  0  0
 36 37  1  0  0  0  0
 38 37  2  0  0  0  0
 39 38  1  0  0  0  0
 40 41  2  0  0  0  0
 40 39  1  0  0  0  0
 42 40  1  0  0  0  0
 43 42  2  0  0  0  0
 43 45  1  0  0  0  0
 44 43  1  0  0  0  0
 45 46  1  0  0  0  0
 46 39  2  0  0  0  0
 46 36  1  0  0  0  0
M  END
>  <CHROM.1>
0.12898410,5.85190949,157.60961157,43.59412752,144.22447037,-2.05152042,0.17762462
-2.11840934

>  <Name>
lig.pdb

>  <RI>
0

>  <Rbt.Current_Directory>
/home/itssahil/PROJECTS/Mol_Feturizer/New_Systems/rnas/4yb0

>  <Rbt.Executable>
rbdock ($Id: //depot/dev/client3/rdock/2013.1/src/exe/rbdock.cxx#4 $)

>  <Rbt.Library>
libRbt.so (2013.1, Build901 2013/11/27)

>  <Rbt.Parameter_File>
/export/apps/rDock/src/rDock_2013.1_src/data/scripts/dock_solv.prm

>  <Rbt.Receptor>
prm/pocket_docking_3.prm

>  <SCORE>
-50.2416

>  <SCORE.INTER>
-50.3148

>  <SCORE.INTER.CONST>
1

>  <SCORE.INTER.POLAR>
0

>  <SCORE.INTER.ROT>
2

>  <SCORE.INTER.SOLV>
28.5279

>  <SCORE.INTER.VDW>
-47.9858

>  <SCORE.INTER.norm>
-1.0938

>  <SCORE.INTRA>
0.0731799

>  <SCORE.INTRA.DIHEDRAL>
0.0739221

>  <SCORE.INTRA.DIHEDRAL.0>
4.74153

>  <SCORE.INTRA.POLAR>
0

>  <SCORE.INTRA.POLAR.0>
0

>  <SCORE.INTRA.REPUL>
0

>  <SCORE.INTRA.REPUL.0>
0

>  <SCORE.INTRA.SOLV>
0.0997437

>  <SCORE.INTRA.SOLV.lig_0>
-60.4375

>  <SCORE.INTRA.VDW>
-0.0136531

>  <SCORE.INTRA.VDW.0>
-1.83689

>  <SCORE.INTRA.norm>
0.00159087

>  <SCORE.RESTR>
0

>  <SCORE.RESTR.CAVITY>
0

>  <SCORE.RESTR.norm>
0

>  <SCORE.SYSTEM>
0

>  <SCORE.SYSTEM.CONST>
0

>  <SCORE.SYSTEM.DIHEDRAL>
0

>  <SCORE.SYSTEM.SOLV>
0

>  <SCORE.SYSTEM.norm>
0

>  <SCORE.heavy>
46

>  <SCORE.norm>
-1.09221

>  <RMSD>
0.512

$$$$
lig.pdb
 OpenBabel11021811523D
libRbt.so/2013.1/901 2013/11/27
 46 52  0  0  0  0  0  0  0  0999 V2000
  159.6001   46.2682  143.4226 P   0  0  2  0  0  0  0  0  0  0  0  0
  160.2262   47.6148  143.7125 O   0  0  0  0  0  0  0  0  0  0  0  0
  159.1181   46.0342  142.0140 O   0  0  0  0  0  0  0  0  0  0  0  0
  158.3851   45.9596  144.4295 O   0  0  0  0  0  0  0  0  0  0  0  0
  158.1298   46.7807  145.5616 C   0  0  0  0  0  0  0  0  0  0  0  0
  157.2086   46.0583  146.5307 C   0  0  1  0  0  0  0  0  0  0  0  0
  155.9057   46.6066  146.3902 O   0  0  0  0  0  0  0  0  0  0  0  0
  157.0653   44.5578  146.3101 C   0  0  1  0  0  0  0  0  0  0  0  0
  157.8260   43.8569  147.2831 O   0  0  0  0  0  0  0  0  0  0  0  0
  155.6006   44.2997  146.5840 C   0  0  1  0  0  0  0  0  0  0  0  0
  155.4167   44.0022  147.9695 O   0  0  0  0  0  0  0  0  0  0  0  0
  154.9039   45.6034  146.3226 C   0  0  2  0  0  0  0  0  0  0  0  0
  154.3404   45.5879  144.9518 N   0  0  0  0  0  0  0  0  0  0  0  0
  154.9609   46.0312  143.8446 C   0  0  0  0  0  0  0  0  0  0  0  0
  154.1625   45.8868  142.7598 N   0  0  0  0  0  0  0  0  0  0  0  0
  153.0024   45.3410  143.1661 C   0  0  0  0  0  0  0  0  0  0  0  0
  151.7319   44.9246  142.5269 C   0  0  0  0  0  0  0  0  0  0  0  0
  151.5673   45.0715  141.2919 O   0  0  0  0  0  0  0  0  0  0  0  0
  150.7783   44.3945  143.3118 N   0  0  0  0  0  0  0  0  0  0  0  0
  150.9594   44.2403  144.6371 C   0  0  0  0  0  0  0  0  0  0  0  0
  149.9671   43.6966  145.3767 N   0  0  0  0  0  0  0  0  0  0  0  0
  152.0921   44.5988  145.2830 N   0  0  0  0  0  0  0  0  0  0  0  0
  153.1295   45.1453  144.6136 C   0  0  0  0  0  0  0  0  0  0  0  0
  158.1331   42.2649  147.1978 P   0  0  2  0  0  0  0  0  0  0  0  0
  156.8443   41.5249  146.9338 O   0  0  0  0  0  0  0  0  0  0  0  0
  158.9870   41.9366  148.4082 O   0  0  0  0  0  0  0  0  0  0  0  0
  159.0352   42.1575  145.8621 O   0  0  0  0  0  0  0  0  0  0  0  0
  160.4246   42.4797  145.9090 C   0  0  0  0  0  0  0  0  0  0  0  0
  161.0213   42.7774  144.5299 C   0  0  1  0  0  0  0  0  0  0  0  0
  161.1562   41.5561  143.7998 O   0  0  0  0  0  0  0  0  0  0  0  0
  160.1981   43.7242  143.6593 C   0  0  1  0  0  0  0  0  0  0  0  0
  160.6301   45.0792  143.7753 O   0  0  0  0  0  0  0  0  0  0  0  0
  160.4447   43.1775  142.2656 C   0  0  1  0  0  0  0  0  0  0  0  0
  161.6299   43.7437  141.6994 O   0  0  0  0  0  0  0  0  0  0  0  0
  160.6942   41.6956  142.4536 C   0  0  2  0  0  0  0  0  0  0  0  0
  159.4164   40.9552  142.3082 N   0  0  0  0  0  0  0  0  0  0  0  0
  158.9004   40.0935  143.2070 C   0  0  0  0  0  0  0  0  0  0  0  0
  157.7073   39.5829  142.7936 N   0  0  0  0  0  0  0  0  0  0  0  0
  157.4355   40.1307  141.5985 C   0  0  0  0  0  0  0  0  0  0  0  0
  156.3460   40.0247  140.5948 C   0  0  0  0  0  0  0  0  0  0  0  0
  155.3452   39.2964  140.7678 O   0  0  0  0  0  0  0  0  0  0  0  0
  156.4539   40.7633  139.4891 N   0  0  0  0  0  0  0  0  0  0  0  0
  157.5051   41.5652  139.2593 C   0  0  0  0  0  0  0  0  0  0  0  0
  157.5176   42.2524  138.1074 N   0  0  0  0  0  0  0  0  0  0  0  0
  158.5399   41.7089  140.1199 N   0  0  0  0  0  0  0  0  0  0  0  0
  158.5645   41.0297  141.2859 C   0  0  0  0  0  0  0  0  0  0  0  0
  1  3  2  6  0  0  0
  1 32  1  0  0  0  0
  1  2  1  0  0  0  0
  1  4  1  0  0  0  0
  4  5  1  0  0  0  0
  6  5  1  6  0  0  0
  7  6  1  0  0  0  0
  8  6  1  0  0  0  0
  8 10  1  0  0  0  0
  8  9  1  1  0  0  0
 10 11  1  1  0  0  0
 12 13  1  6  0  0  0
 12  7  1  0  0  0  0
 12 10  1  0  0  0  0
 14 13  1  0  0  0  0
 15 16  1  0  0  0  0
 15 14  2  0  0  0  0
 16 23  2  0  0  0  0
 17 16  1  0  0  0  0
 17 19  1  0  0  0  0
 18 17  2  0  0  0  0
 19 20  2  0  0  0  0
 20 22  1  0  0  0  0
 20 21  1  0  0  0  0
 23 13  1  0  0  0  0
 23 22  1  0  0  0  0
 24 25  2  6  0  0  0
 24  9  1  0  0  0  0
 24 26  1  0  0  0  0
 27 28  1  0  0  0  0
 27 24  1  0  0  0  0
 29 30  1  6  0  0  0
 29 28  1  0  0  0  0
 31 32  1  6  0  0  0
 31 29  1  0  0  0  0
 33 34  1  1  0  0  0
 33 35  1  0  0  0  0
 33 31  1  0  0  0  0
 35 36  1  1  0  0  0
 35 30  1  0  0  0  0
 36 37  1  0  0  0  0
 38 37  2  0  0  0  0
 39 38  1  0  0  0  0
 40 41  2  0  0  0  0
 40 39  1  0  0  0  0
 42 40  1  0  0  0  0
 43 42  2  0  0  0  0
 43 45  1  0  0  0  0
 44 43  1  0  0  0  0
 45 46  1  0  0  0  0
 46 39  2  0  0  0  0
 46 36  1  0  0  0  0
M  END
>  <CHROM.1>
23.52944345,-11.32285072,157.10772308,43.58852954,143.92428611,-0.35400789
-0.15909159,1.01103461

>  <Name>
lig.pdb

>  <RI>
0

>  <Rbt.Current_Directory>
/home/itssahil/PROJECTS/Mol_Feturizer/New_Systems/rnas/4yb0

>  <Rbt.Executable>
rbdock ($Id: //depot/dev/client3/rdock/2013.1/src/exe/rbdock.cxx#4 $)

>  <Rbt.Library>
libRbt.so (2013.1, Build901 2013/11/27)

>  <Rbt.Parameter_File>
/export/apps/rDock/src/rDock_2013.1_src/data/scripts/dock_solv.prm

>  <Rbt.Receptor>
prm/pocket_docking_2.prm

>  <SCORE>
-53.6524

>  <SCORE.INTER>
-53.5133

>  <SCORE.INTER.CONST>
1

>  <SCORE.INTER.POLAR>
0

>  <SCORE.INTER.ROT>
2

>  <SCORE.INTER.SOLV>
31.4112

>  <SCORE.INTER.VDW>
-51.0793

>  <SCORE.INTER.norm>
-1.16333

>  <SCORE.INTRA>
-0.139021

>  <SCORE.INTRA.DIHEDRAL>
-0.0198651

>  <SCORE.INTRA.DIHEDRAL.0>
4.74153

>  <SCORE.INTRA.POLAR>
0

>  <SCORE.INTRA.POLAR.0>
0

>  <SCORE.INTRA.REPUL>
0

>  <SCORE.INTRA.REPUL.0>
0

>  <SCORE.INTRA.SOLV>
0.00441981

>  <SCORE.INTRA.SOLV.lig_0>
-60.4375

>  <SCORE.INTRA.VDW>
-0.131299

>  <SCORE.INTRA.VDW.0>
-1.83689

>  <SCORE.INTRA.norm>
-0.0030222

>  <SCORE.RESTR>
0

>  <SCORE.RESTR.CAVITY>
0

>  <SCORE.RESTR.norm>
0

>  <SCORE.SYSTEM>
0

>  <SCORE.SYSTEM.CONST>
0

>  <SCORE.SYSTEM.DIHEDRAL>
0

>  <SCORE.SYSTEM.SOLV>
0

>  <SCORE.SYSTEM.norm>
0

>  <SCORE.heavy>
46

>  <SCORE.norm>
-1.16636

>  <RMSD>
0.513

$$$$
lig.pdb
 OpenBabel11021811523D
libRbt.so/2013.1/901 2013/11/27
 46 52  0  0  0  0  0  0  0  0999 V2000
  159.6289   46.2839  143.4759 P   0  0  2  0  0  0  0  0  0  0  0  0
  160.2648   47.6201  143.7913 O   0  0  0  0  0  0  0  0  0  0  0  0
  159.1633   46.0729  142.0582 O   0  0  0  0  0  0  0  0  0  0  0  0
  158.3976   45.9751  144.4627 O   0  0  0  0  0  0  0  0  0  0  0  0
  158.1358   46.7843  145.6018 C   0  0  0  0  0  0  0  0  0  0  0  0
  157.1944   46.0593  146.5494 C   0  0  1  0  0  0  0  0  0  0  0  0
  155.8992   46.6228  146.3988 O   0  0  0  0  0  0  0  0  0  0  0  0
  157.0387   44.5632  146.3076 C   0  0  1  0  0  0  0  0  0  0  0  0
  157.7792   43.8421  147.2814 O   0  0  0  0  0  0  0  0  0  0  0  0
  155.5679   44.3170  146.5589 C   0  0  1  0  0  0  0  0  0  0  0  0
  155.3627   44.0038  147.9380 O   0  0  0  0  0  0  0  0  0  0  0  0
  154.8881   45.6311  146.3052 C   0  0  2  0  0  0  0  0  0  0  0  0
  154.3427   45.6389  144.9270 N   0  0  0  0  0  0  0  0  0  0  0  0
  154.9870   46.0783  143.8320 C   0  0  0  0  0  0  0  0  0  0  0  0
  154.2002   45.9598  142.7356 N   0  0  0  0  0  0  0  0  0  0  0  0
  153.0237   45.4351  143.1219 C   0  0  0  0  0  0  0  0  0  0  0  0
  151.7535   45.0508  142.4625 C   0  0  0  0  0  0  0  0  0  0  0  0
  151.6084   45.2115  141.2267 O   0  0  0  0  0  0  0  0  0  0  0  0
  150.7786   44.5343  143.2302 N   0  0  0  0  0  0  0  0  0  0  0  0
  150.9388   44.3653  144.5563 C   0  0  0  0  0  0  0  0  0  0  0  0
  149.9256   43.8364  145.2782 N   0  0  0  0  0  0  0  0  0  0  0  0
  152.0700   44.6945  145.2202 N   0  0  0  0  0  0  0  0  0  0  0  0
  153.1274   45.2246  144.5692 C   0  0  0  0  0  0  0  0  0  0  0  0
  158.0711   42.2482  147.1797 P   0  0  2  0  0  0  0  0  0  0  0  0
  156.7785   41.5252  146.8893 O   0  0  0  0  0  0  0  0  0  0  0  0
  158.9055   41.8957  148.3968 O   0  0  0  0  0  0  0  0  0  0  0  0
  158.9897   42.1485  145.8547 O   0  0  0  0  0  0  0  0  0  0  0  0
  160.3816   42.4557  145.9239 C   0  0  0  0  0  0  0  0  0  0  0  0
  160.9995   42.7646  144.5567 C   0  0  1  0  0  0  0  0  0  0  0  0
  161.1316   41.5515  143.8127 O   0  0  0  0  0  0  0  0  0  0  0  0
  160.1977   43.7309  143.6877 C   0  0  1  0  0  0  0  0  0  0  0  0
  160.6420   45.0798  143.8267 O   0  0  0  0  0  0  0  0  0  0  0  0
  160.4571   43.1996  142.2904 C   0  0  1  0  0  0  0  0  0  0  0  0
  161.6554   43.7606  141.7470 O   0  0  0  0  0  0  0  0  0  0  0  0
  160.6889   41.7129  142.4625 C   0  0  2  0  0  0  0  0  0  0  0  0
  159.4056   40.9877  142.2909 N   0  0  0  0  0  0  0  0  0  0  0  0
  158.9148   40.0500  143.1253 C   0  0  0  0  0  0  0  0  0  0  0  0
  157.7087   39.5774  142.7045 N   0  0  0  0  0  0  0  0  0  0  0  0
  157.4026   40.2283  141.5710 C   0  0  0  0  0  0  0  0  0  0  0  0
  156.2833   40.2108  140.5950 C   0  0  0  0  0  0  0  0  0  0  0  0
  155.2864   39.4696  140.7331 O   0  0  0  0  0  0  0  0  0  0  0  0
  156.3597   41.0439  139.5559 N   0  0  0  0  0  0  0  0  0  0  0  0
  157.4054   41.8634  139.3663 C   0  0  0  0  0  0  0  0  0  0  0  0
  157.3850   42.6494  138.2795 N   0  0  0  0  0  0  0  0  0  0  0  0
  158.4659   41.9310  140.2048 N   0  0  0  0  0  0  0  0  0  0  0  0
  158.5238   41.1518  141.3051 C   0  0  0  0  0  0  0  0  0  0  0  0
  1  3  2  6  0  0  0
  1 32  1  0  0  0  0
  1  2  1  0  0  0  0
  1  4  1  0  0  0  0
  4  5  1  0  0  0  0
  6  5  1  6  0  0  0
  7  6  1  0  0  0  0
  8  6  1  0  0  0  0
  8 10  1  0  0  0  0
  8  9  1  1  0  0  0
 10 11  1  1  0  0  0
 12 13  1  6  0  0  0
 12  7  1  0  0  0  0
 12 10  1  0  0  0  0
 14 13  1  0  0  0  0
 15 16  1  0  0  0  0
 15 14  2  0  0  0  0
 16 23  2  0  0  0  0
 17 16  1  0  0  0  0
 17 19  1  0  0  0  0
 18 17  2  0  0  0  0
 19 20  2  0  0  0  0
 20 22  1  0  0  0  0
 20 21  1  0  0  0  0
 23 13  1  0  0  0  0
 23 22  1  0  0  0  0
 24 25  2  6  0  0  0
 24  9  1  0  0  0  0
 24 26  1  0  0  0  0
 27 28  1  0  0  0  0
 27 24  1  0  0  0  0
 29 30  1  6  0  0  0
 29 28  1  0  0  0  0
 31 32  1  6  0  0  0
 31 29  1  0  0  0  0
 33 34  1  1  0  0  0
 33 35  1  0  0  0  0
 33 31  1  0  0  0  0
 35 36  1  1  0  0  0
 35 30  1  0  0  0  0
 36 37  1  0  0  0  0
 38 37  2  0  0  0  0
 39 38  1  0  0  0  0
 40 41  2  0  0  0  0
 40 39  1  0  0  0  0
 42 40  1  0  0  0  0
 43 42  2  0  0  0  0
 43 45  1  0  0  0  0
 44 43  1  0  0  0  0
 45 46  1  0  0  0  0
 46 39  2  0  0  0  0
 46 36  1  0  0  0  0
M  END
>  <CHROM.1>
24.18675913,-16.33215190,157.08864325,43.64700367,143.92437936,-0.30794199
-0.18058006,1.03363026

>  <Name>
lig.pdb

>  <RI>
0

>  <Rbt.Current_Directory>
/home/itssahil/PROJECTS/Mol_Feturizer/New_Systems/rnas/4yb0

>  <Rbt.Executable>
rbdock ($Id: //depot/dev/client3/rdock/2013.1/src/exe/rbdock.cxx#4 $)

>  <Rbt.Library>
libRbt.so (2013.1, Build901 2013/11/27)

>  <Rbt.Parameter_File>
/export/apps/rDock/src/rDock_2013.1_src/data/scripts/dock_solv.prm

>  <Rbt.Receptor>
prm/pocket_docking_3.prm

>  <SCORE>
-53.542

>  <SCORE.INTER>
-53.4073

>  <SCORE.INTER.CONST>
1

>  <SCORE.INTER.POLAR>
0

>  <SCORE.INTER.ROT>
2

>  <SCORE.INTER.SOLV>
31.601

>  <SCORE.INTER.VDW>
-51.0718

>  <SCORE.INTER.norm>
-1.16103

>  <SCORE.INTRA>
-0.13471

>  <SCORE.INTRA.DIHEDRAL>
-0.0318398

>  <SCORE.INTRA.DIHEDRAL.0>
4.74153

>  <SCORE.INTRA.POLAR>
0

>  <SCORE.INTRA.POLAR.0>
0

>  <SCORE.INTRA.REPUL>
0

>  <SCORE.INTRA.REPUL.0>
0

>  <SCORE.INTRA.SOLV>
-0.00981342

>  <SCORE.INTRA.SOLV.lig_0>
-60.4375

>  <SCORE.INTRA.VDW>
-0.113883

>  <SCORE.INTRA.VDW.0>
-1.83689

>  <SCORE.INTRA.norm>
-0.00292847

>  <SCORE.RESTR>
0

>  <SCORE.RESTR.CAVITY>
0

>  <SCORE.RESTR.norm>
0

>  <SCORE.SYSTEM>
0

>  <SCORE.SYSTEM.CONST>
0

>  <SCORE.SYSTEM.DIHEDRAL>
0

>  <SCORE.SYSTEM.SOLV>
0

>  <SCORE.SYSTEM.norm>
0

>  <SCORE.heavy>
46

>  <SCORE.norm>
-1.16396

>  <RMSD>
0.515

$$$$
lig.pdb
 OpenBabel11021811523D
libRbt.so/2013.1/901 2013/11/27
 46 52  0  0  0  0  0  0  0  0999 V2000
  159.6269   46.3018  143.5156 P   0  0  2  0  0  0  0  0  0  0  0  0
  160.2561   47.6399  143.8369 O   0  0  0  0  0  0  0  0  0  0  0  0
  159.1747   46.0896  142.0938 O   0  0  0  0  0  0  0  0  0  0  0  0
  158.3877   45.9893  144.4912 O   0  0  0  0  0  0  0  0  0  0  0  0
  158.1132   46.7977  145.6280 C   0  0  0  0  0  0  0  0  0  0  0  0
  157.1654   46.0698  146.5670 C   0  0  1  0  0  0  0  0  0  0  0  0
  155.8700   46.6297  146.4048 O   0  0  0  0  0  0  0  0  0  0  0  0
  157.0162   44.5734  146.3237 C   0  0  1  0  0  0  0  0  0  0  0  0
  157.7500   43.8543  147.3040 O   0  0  0  0  0  0  0  0  0  0  0  0
  155.5439   44.3228  146.5617 C   0  0  1  0  0  0  0  0  0  0  0  0
  155.3271   44.0089  147.9388 O   0  0  0  0  0  0  0  0  0  0  0  0
  154.8627   45.6350  146.3019 C   0  0  2  0  0  0  0  0  0  0  0  0
  154.3297   45.6414  144.9189 N   0  0  0  0  0  0  0  0  0  0  0  0
  154.9804   46.0883  143.8307 C   0  0  0  0  0  0  0  0  0  0  0  0
  154.2045   45.9659  142.7269 N   0  0  0  0  0  0  0  0  0  0  0  0
  153.0288   45.4309  143.1014 C   0  0  0  0  0  0  0  0  0  0  0  0
  151.7677   45.0378  142.4297 C   0  0  0  0  0  0  0  0  0  0  0  0
  151.6326   45.2000  141.1930 O   0  0  0  0  0  0  0  0  0  0  0  0
  150.7902   44.5118  143.1875 N   0  0  0  0  0  0  0  0  0  0  0  0
  150.9396   44.3413  144.5147 C   0  0  0  0  0  0  0  0  0  0  0  0
  149.9242   43.8027  145.2262 N   0  0  0  0  0  0  0  0  0  0  0  0
  152.0621   44.6781  145.1895 N   0  0  0  0  0  0  0  0  0  0  0  0
  153.1211   45.2181  144.5492 C   0  0  0  0  0  0  0  0  0  0  0  0
  158.0474   42.2613  147.2049 P   0  0  2  0  0  0  0  0  0  0  0  0
  156.7595   41.5345  146.9028 O   0  0  0  0  0  0  0  0  0  0  0  0
  158.8717   41.9111  148.4295 O   0  0  0  0  0  0  0  0  0  0  0  0
  158.9782   42.1643  145.8882 O   0  0  0  0  0  0  0  0  0  0  0  0
  160.3685   42.4755  145.9701 C   0  0  0  0  0  0  0  0  0  0  0  0
  160.9979   42.7864  144.6085 C   0  0  1  0  0  0  0  0  0  0  0  0
  161.1402   41.5737  143.8657 O   0  0  0  0  0  0  0  0  0  0  0  0
  160.2011   43.7505  143.7323 C   0  0  1  0  0  0  0  0  0  0  0  0
  160.6403   45.1006  143.8755 O   0  0  0  0  0  0  0  0  0  0  0  0
  160.4747   43.2200  142.3374 C   0  0  1  0  0  0  0  0  0  0  0  0
  161.6762   43.7845  141.8050 O   0  0  0  0  0  0  0  0  0  0  0  0
  160.7093   41.7340  142.5115 C   0  0  2  0  0  0  0  0  0  0  0  0
  159.4297   41.0051  142.3282 N   0  0  0  0  0  0  0  0  0  0  0  0
  158.9237   40.0813  143.1691 C   0  0  0  0  0  0  0  0  0  0  0  0
  157.7259   39.6008  142.7339 N   0  0  0  0  0  0  0  0  0  0  0  0
  157.4407   40.2323  141.5840 C   0  0  0  0  0  0  0  0  0  0  0  0
  156.3398   40.1975  140.5877 C   0  0  0  0  0  0  0  0  0  0  0  0
  155.3408   39.4581  140.7197 O   0  0  0  0  0  0  0  0  0  0  0  0
  156.4354   41.0131  139.5363 N   0  0  0  0  0  0  0  0  0  0  0  0
  157.4841   41.8299  139.3525 C   0  0  0  0  0  0  0  0  0  0  0  0
  157.4837   42.5975  138.2524 N   0  0  0  0  0  0  0  0  0  0  0  0
  158.5287   41.9124  140.2093 N   0  0  0  0  0  0  0  0  0  0  0  0
  158.5663   41.1519  141.3236 C   0  0  0  0  0  0  0  0  0  0  0  0
  1  3  2  6  0  0  0
  1 32  1  0  0  0  0
  1  2  1  0  0  0  0
  1  4  1  0  0  0  0
  4  5  1  0  0  0  0
  6  5  1  6  0  0  0
  7  6  1  0  0  0  0
  8  6  1  0  0  0  0
  8 10  1  0  0  0  0
  8  9  1  1  0  0  0
 10 11  1  1  0  0  0
 12 13  1  6  0  0  0
 12  7  1  0  0  0  0
 12 10  1  0  0  0  0
 14 13  1  0  0  0  0
 15 16  1  0  0  0  0
 15 14  2  0  0  0  0
 16 23  2  0  0  0  0
 17 16  1  0  0  0  0
 17 19  1  0  0  0  0
 18 17  2  0  0  0  0
 19 20  2  0  0  0  0
 20 22  1  0  0  0  0
 20 21  1  0  0  0  0
 23 13  1  0  0  0  0
 23 22  1  0  0  0  0
 24 25  2  6  0  0  0
 24  9  1  0  0  0  0
 24 26  1  0  0  0  0
 27 28  1  0  0  0  0
 27 24  1  0  0  0  0
 29 30  1  6  0  0  0
 29 28  1  0  0  0  0
 31 32  1  6  0  0  0
 31 29  1  0  0  0  0
 33 34  1  1  0  0  0
 33 35  1  0  0  0  0
 33 31  1  0  0  0  0
 35 36  1  1  0  0  0
 35 30  1  0  0  0  0
 36 37  1  0  0  0  0
 38 37  2  0  0  0  0
 39 38  1  0  0  0  0
 40 41  2  0  0  0  0
 40 39  1  0  0  0  0
 42 40  1  0  0  0  0
 43 42  2  0  0  0  0
 43 45  1  0  0  0  0
 44 43  1  0  0  0  0
 45 46  1  0  0  0  0
 46 39  2  0  0  0  0
 46 36  1  0  0  0  0
M  END
>  <CHROM.1>
23.86959421,-15.20534293,157.09388065,43.65166111,143.93749202,-0.30661451
-0.18084321,1.03352586

>  <Name>
lig.pdb

>  <RI>
0

>  <Rbt.Current_Directory>
/home/itssahil/PROJECTS/Mol_Feturizer/New_Systems/rnas/4yb0

>  <Rbt.Executable>
rbdock ($Id: //depot/dev/client3/rdock/2013.1/src/exe/rbdock.cxx#4 $)

>  <Rbt.Library>
libRbt.so (2013.1, Build901 2013/11/27)

>  <Rbt.Parameter_File>
/export/apps/rDock/src/rDock_2013.1_src/data/scripts/dock_solv.prm

>  <Rbt.Receptor>
prm/pocket_docking_3.prm

>  <SCORE>
-53.5839

>  <SCORE.INTER>
-53.4625

>  <SCORE.INTER.CONST>
1

>  <SCORE.INTER.POLAR>
0

>  <SCORE.INTER.ROT>
2

>  <SCORE.INTER.SOLV>
31.3048

>  <SCORE.INTER.VDW>
-51.0099

>  <SCORE.INTER.norm>
-1.16223

>  <SCORE.INTRA>
-0.121381

>  <SCORE.INTRA.DIHEDRAL>
-0.0292834

>  <SCORE.INTRA.DIHEDRAL.0>
4.74153

>  <SCORE.INTRA.POLAR>
0

>  <SCORE.INTRA.POLAR.0>
0

>  <SCORE.INTRA.REPUL>
0

>  <SCORE.INTRA.REPUL.0>
0

>  <SCORE.INTRA.SOLV>
-0.00663426

>  <SCORE.INTRA.SOLV.lig_0>
-60.4375

>  <SCORE.INTRA.VDW>
-0.103422

>  <SCORE.INTRA.VDW.0>
-1.83689

>  <SCORE.INTRA.norm>
-0.00263872

>  <SCORE.RESTR>
0

>  <SCORE.RESTR.CAVITY>
0

>  <SCORE.RESTR.norm>
0

>  <SCORE.SYSTEM>
0

>  <SCORE.SYSTEM.CONST>
0

>  <SCORE.SYSTEM.DIHEDRAL>
0

>  <SCORE.SYSTEM.SOLV>
0

>  <SCORE.SYSTEM.norm>
0

>  <SCORE.heavy>
46

>  <SCORE.norm>
-1.16487

>  <RMSD>
0.523

$$$$
lig.pdb
 OpenBabel11021811523D
libRbt.so/2013.1/901 2013/11/27
 46 52  0  0  0  0  0  0  0  0999 V2000
  158.6076   42.0741  147.5412 P   0  0  2  0  0  0  0  0  0  0  0  0
  159.4912   41.3301  148.5186 O   0  0  0  0  0  0  0  0  0  0  0  0
  157.1987   41.5647  147.3783 O   0  0  0  0  0  0  0  0  0  0  0  0
  159.2859   42.1565  146.0858 O   0  0  0  0  0  0  0  0  0  0  0  0
  160.6345   41.7618  145.8698 C   0  0  0  0  0  0  0  0  0  0  0  0
  161.1271   42.3017  144.5373 C   0  0  1  0  0  0  0  0  0  0  0  0
  161.1268   41.2321  143.6025 O   0  0  0  0  0  0  0  0  0  0  0  0
  160.2801   43.4072  143.9199 C   0  0  1  0  0  0  0  0  0  0  0  0
  160.9223   44.6604  144.1035 O   0  0  0  0  0  0  0  0  0  0  0  0
  160.2984   43.0820  142.4432 C   0  0  1  0  0  0  0  0  0  0  0  0
  161.4069   43.7355  141.8217 O   0  0  0  0  0  0  0  0  0  0  0  0
  160.5588   41.6062  142.3567 C   0  0  2  0  0  0  0  0  0  0  0  0
  159.2699   40.8934  142.1903 N   0  0  0  0  0  0  0  0  0  0  0  0
  158.7300   40.0347  143.0726 C   0  0  0  0  0  0  0  0  0  0  0  0
  157.5544   39.5484  142.6071 N   0  0  0  0  0  0  0  0  0  0  0  0
  157.3242   40.0984  141.4016 C   0  0  0  0  0  0  0  0  0  0  0  0
  156.2627   40.0158  140.3709 C   0  0  0  0  0  0  0  0  0  0  0  0
  155.2690   39.2699  140.5447 O   0  0  0  0  0  0  0  0  0  0  0  0
  156.4070   40.7581  139.2598 N   0  0  0  0  0  0  0  0  0  0  0  0
  157.4762   41.5560  139.0774 C   0  0  0  0  0  0  0  0  0  0  0  0
  157.5665   42.2840  137.9420 N   0  0  0  0  0  0  0  0  0  0  0  0
  158.4794   41.6778  139.9761 N   0  0  0  0  0  0  0  0  0  0  0  0
  158.4603   40.9863  141.1355 C   0  0  0  0  0  0  0  0  0  0  0  0
  160.1952   46.0848  143.8231 P   0  0  2  0  0  0  0  0  0  0  0  0
  159.5384   46.0469  142.4647 O   0  0  0  0  0  0  0  0  0  0  0  0
  161.2173   47.1525  144.1657 O   0  0  0  0  0  0  0  0  0  0  0  0
  159.0185   46.0964  144.9296 O   0  0  0  0  0  0  0  0  0  0  0  0
  159.3106   46.4482  146.2814 C   0  0  0  0  0  0  0  0  0  0  0  0
  158.2416   45.9760  147.2718 C   0  0  1  0  0  0  0  0  0  0  0  0
  157.0760   46.7916  147.1336 O   0  0  0  0  0  0  0  0  0  0  0  0
  157.7909   44.5277  147.0955 C   0  0  1  0  0  0  0  0  0  0  0  0
  158.5053   43.6314  147.9455 O   0  0  0  0  0  0  0  0  0  0  0  0
  156.3220   44.5990  147.4692 C   0  0  1  0  0  0  0  0  0  0  0  0
  156.1480   44.4446  148.8804 O   0  0  0  0  0  0  0  0  0  0  0  0
  155.8834   46.0029  147.1083 C   0  0  2  0  0  0  0  0  0  0  0  0
  155.3342   46.0119  145.7297 N   0  0  0  0  0  0  0  0  0  0  0  0
  155.9195   46.5748  144.6540 C   0  0  0  0  0  0  0  0  0  0  0  0
  155.1760   46.4057  143.5253 N   0  0  0  0  0  0  0  0  0  0  0  0
  154.0821   45.7094  143.8728 C   0  0  0  0  0  0  0  0  0  0  0  0
  152.8740   45.1960  143.1781 C   0  0  0  0  0  0  0  0  0  0  0  0
  152.6897   45.3530  141.9519 O   0  0  0  0  0  0  0  0  0  0  0  0
  151.9819   44.5257  143.9092 N   0  0  0  0  0  0  0  0  0  0  0  0
  152.1369   44.3251  145.2270 C   0  0  0  0  0  0  0  0  0  0  0  0
  151.1706   43.6496  145.8668 N   0  0  0  0  0  0  0  0  0  0  0  0
  153.2040   44.7686  145.9319 N   0  0  0  0  0  0  0  0  0  0  0  0
  154.1929   45.4563  145.3234 C   0  0  0  0  0  0  0  0  0  0  0  0
  1  3  2  6  0  0  0
  1 32  1  0  0  0  0
  1  2  1  0  0  0  0
  1  4  1  0  0  0  0
  4  5  1  0  0  0  0
  6  5  1  1  0  0  0
  7  6  1  0  0  0  0
  8  6  1  0  0  0  0
  8 10  1  0  0  0  0
  8  9  1  6  0  0  0
 10 11  1  6  0  0  0
 12 13  1  1  0  0  0
 12  7  1  0  0  0  0
 12 10  1  0  0  0  0
 14 13  1  0  0  0  0
 15 16  1  0  0  0  0
 15 14  2  0  0  0  0
 16 23  2  0  0  0  0
 17 16  1  0  0  0  0
 17 19  1  0  0  0  0
 18 17  2  0  0  0  0
 19 20  2  0  0  0  0
 20 22  1  0  0  0  0
 20 21  1  0  0  0  0
 23 13  1  0  0  0  0
 23 22  1  0  0  0  0
 24 25  2  6  0  0  0
 24  9  1  0  0  0  0
 24 26  1  0  0  0  0
 27 28  1  0  0  0  0
 27 24  1  0  0  0  0
 29 30  1  6  0  0  0
 29 28  1  0  0  0  0
 31 32  1  1  0  0  0
 31 29  1  0  0  0  0
 33 34  1  1  0  0  0
 33 35  1  0  0  0  0
 33 31  1  0  0  0  0
 35 36  1  6  0  0  0
 35 30  1  0  0  0  0
 36 37  1  0  0  0  0
 38 37  2  0  0  0  0
 39 38  1  0  0  0  0
 40 41  2  0  0  0  0
 40 39  1  0  0  0  0
 42 40  1  0  0  0  0
 43 42  2  0  0  0  0
 43 45  1  0  0  0  0
 44 43  1  0  0  0  0
 45 46  1  0  0  0  0
 46 39  2  0  0  0  0
 46 36  1  0  0  0  0
M  END
>  <CHROM.1>
-0.05393474,5.12324710,157.60440180,43.56789939,144.25878255,-2.04357617
0.18576221,-2.11762236

>  <Name>
lig.pdb

>  <RI>
0

>  <Rbt.Current_Directory>
/home/itssahil/PROJECTS/Mol_Feturizer/New_Systems/rnas/4yb0

>  <Rbt.Executable>
rbdock ($Id: //depot/dev/client3/rdock/2013.1/src/exe/rbdock.cxx#4 $)

>  <Rbt.Library>
libRbt.so (2013.1, Build901 2013/11/27)

>  <Rbt.Parameter_File>
/export/apps/rDock/src/rDock_2013.1_src/data/scripts/dock_solv.prm

>  <Rbt.Receptor>
prm/pocket_docking_3.prm

>  <SCORE>
-50.2779

>  <SCORE.INTER>
-50.3542

>  <SCORE.INTER.CONST>
1

>  <SCORE.INTER.POLAR>
0

>  <SCORE.INTER.ROT>
2

>  <SCORE.INTER.SOLV>
28.487

>  <SCORE.INTER.VDW>
-47.9984

>  <SCORE.INTER.norm>
-1.09466

>  <SCORE.INTRA>
0.0763007

>  <SCORE.INTRA.DIHEDRAL>
0.0721455

>  <SCORE.INTRA.DIHEDRAL.0>
4.74153

>  <SCORE.INTRA.POLAR>
0

>  <SCORE.INTRA.POLAR.0>
0

>  <SCORE.INTRA.REPUL>
0

>  <SCORE.INTRA.REPUL.0>
0

>  <SCORE.INTRA.SOLV>
0.0984815

>  <SCORE.INTRA.SOLV.lig_0>
-60.4375

>  <SCORE.INTRA.VDW>
-0.00901285

>  <SCORE.INTRA.VDW.0>
-1.83689

>  <SCORE.INTRA.norm>
0.00165871

>  <SCORE.RESTR>
0

>  <SCORE.RESTR.CAVITY>
0

>  <SCORE.RESTR.norm>
0

>  <SCORE.SYSTEM>
0

>  <SCORE.SYSTEM.CONST>
0

>  <SCORE.SYSTEM.DIHEDRAL>
0

>  <SCORE.SYSTEM.SOLV>
0

>  <SCORE.SYSTEM.norm>
0

>  <SCORE.heavy>
46

>  <SCORE.norm>
-1.093

>  <RMSD>
0.523

$$$$
lig.pdb
 OpenBabel11021811523D
libRbt.so/2013.1/901 2013/11/27
 46 52  0  0  0  0  0  0  0  0999 V2000
  159.5467   46.2876  143.4832 P   0  0  2  0  0  0  0  0  0  0  0  0
  160.1574   47.6386  143.7856 O   0  0  0  0  0  0  0  0  0  0  0  0
  159.0849   46.0543  142.0677 O   0  0  0  0  0  0  0  0  0  0  0  0
  158.3216   45.9651  144.4733 O   0  0  0  0  0  0  0  0  0  0  0  0
  158.0447   46.7802  145.6047 C   0  0  0  0  0  0  0  0  0  0  0  0
  157.1173   46.0466  146.5595 C   0  0  1  0  0  0  0  0  0  0  0  0
  155.8117   46.5842  146.4040 O   0  0  0  0  0  0  0  0  0  0  0  0
  156.9898   44.5457  146.3321 C   0  0  1  0  0  0  0  0  0  0  0  0
  157.7439   43.8480  147.3125 O   0  0  0  0  0  0  0  0  0  0  0  0
  155.5240   44.2741  146.5863 C   0  0  1  0  0  0  0  0  0  0  0  0
  155.3249   43.9703  147.9683 O   0  0  0  0  0  0  0  0  0  0  0  0
  154.8195   45.5727  146.3202 C   0  0  2  0  0  0  0  0  0  0  0  0
  154.2738   45.5570  144.9422 N   0  0  0  0  0  0  0  0  0  0  0  0
  154.9044   46.0101  143.8447 C   0  0  0  0  0  0  0  0  0  0  0  0
  154.1213   45.8624  142.7492 N   0  0  0  0  0  0  0  0  0  0  0  0
  152.9612   45.3044  143.1385 C   0  0  0  0  0  0  0  0  0  0  0  0
  151.7030   44.8786  142.4815 C   0  0  0  0  0  0  0  0  0  0  0  0
  151.5529   45.0285  141.2450 O   0  0  0  0  0  0  0  0  0  0  0  0
  150.7443   44.3368  143.2522 N   0  0  0  0  0  0  0  0  0  0  0  0
  150.9098   44.1794  144.5792 C   0  0  0  0  0  0  0  0  0  0  0  0
  149.9132   43.6239  145.3040 N   0  0  0  0  0  0  0  0  0  0  0  0
  152.0307   44.5460  145.2409 N   0  0  0  0  0  0  0  0  0  0  0  0
  153.0715   45.1045  144.5869 C   0  0  0  0  0  0  0  0  0  0  0  0
  158.0658   42.2590  147.2259 P   0  0  2  0  0  0  0  0  0  0  0  0
  156.7869   41.5089  146.9429 O   0  0  0  0  0  0  0  0  0  0  0  0
  158.9068   41.9339  148.4461 O   0  0  0  0  0  0  0  0  0  0  0  0
  158.9859   42.1639  145.9016 O   0  0  0  0  0  0  0  0  0  0  0  0
  160.3717   42.4979  145.9675 C   0  0  0  0  0  0  0  0  0  0  0  0
  160.9836   42.8053  144.5972 C   0  0  1  0  0  0  0  0  0  0  0  0
  161.1384   41.5878  143.8648 O   0  0  0  0  0  0  0  0  0  0  0  0
  160.1635   43.7480  143.7192 C   0  0  1  0  0  0  0  0  0  0  0  0
  160.5823   45.1063  143.8452 O   0  0  0  0  0  0  0  0  0  0  0  0
  160.4327   43.2082  142.3270 C   0  0  1  0  0  0  0  0  0  0  0  0
  161.6201   43.7865  141.7779 O   0  0  0  0  0  0  0  0  0  0  0  0
  160.6925   41.7279  142.5132 C   0  0  2  0  0  0  0  0  0  0  0  0
  159.4231   40.9771  142.3490 N   0  0  0  0  0  0  0  0  0  0  0  0
  158.9278   40.0712  143.2153 C   0  0  0  0  0  0  0  0  0  0  0  0
  157.7373   39.5624  142.7922 N   0  0  0  0  0  0  0  0  0  0  0  0
  157.4460   40.1566  141.6241 C   0  0  0  0  0  0  0  0  0  0  0  0
  156.3477   40.0785  140.6275 C   0  0  0  0  0  0  0  0  0  0  0  0
  155.3584   39.3300  140.7791 O   0  0  0  0  0  0  0  0  0  0  0  0
  156.4345   40.8646  139.5532 N   0  0  0  0  0  0  0  0  0  0  0  0
  157.4726   41.6898  139.3475 C   0  0  0  0  0  0  0  0  0  0  0  0
  157.4643   42.4252  138.2257 N   0  0  0  0  0  0  0  0  0  0  0  0
  158.5144   41.8108  140.2033 N   0  0  0  0  0  0  0  0  0  0  0  0
  158.5598   41.0833  141.3391 C   0  0  0  0  0  0  0  0  0  0  0  0
  1  3  2  6  0  0  0
  1 32  1  0  0  0  0
  1  2  1  0  0  0  0
  1  4  1  0  0  0  0
  4  5  1  0  0  0  0
  6  5  1  6  0  0  0
  7  6  1  0  0  0  0
  8  6  1  0  0  0  0
  8 10  1  0  0  0  0
  8  9  1  1  0  0  0
 10 11  1  1  0  0  0
 12 13  1  6  0  0  0
 12  7  1  0  0  0  0
 12 10  1  0  0  0  0
 14 13  1  0  0  0  0
 15 16  1  0  0  0  0
 15 14  2  0  0  0  0
 16 23  2  0  0  0  0
 17 16  1  0  0  0  0
 17 19  1  0  0  0  0
 18 17  2  0  0  0  0
 19 20  2  0  0  0  0
 20 22  1  0  0  0  0
 20 21  1  0  0  0  0
 23 13  1  0  0  0  0
 23 22  1  0  0  0  0
 24 25  2  6  0  0  0
 24  9  1  0  0  0  0
 24 26  1  0  0  0  0
 27 28  1  0  0  0  0
 27 24  1  0  0  0  0
 29 30  1  6  0  0  0
 29 28  1  0  0  0  0
 31 32  1  6  0  0  0
 31 29  1  0  0  0  0
 33 34  1  1  0  0  0
 33 35  1  0  0  0  0
 33 31  1  0  0  0  0
 35 36  1  1  0  0  0
 35 30  1  0  0  0  0
 36 37  1  0  0  0  0
 38 37  2  0  0  0  0
 39 38  1  0  0  0  0
 40 41  2  0  0  0  0
 40 39  1  0  0  0  0
 42 40  1  0  0  0  0
 43 42  2  0  0  0  0
 43 45  1  0  0  0  0
 44 43  1  0  0  0  0
 45 46  1  0  0  0  0
 46 39  2  0  0  0  0
 46 36  1  0  0  0  0
M  END
>  <CHROM.1>
23.48825993,-13.93227556,157.06438497,43.59505625,143.95052930,-0.31575673
-0.16020009,1.02144021

>  <Name>
lig.pdb

>  <RI>
0

>  <Rbt.Current_Directory>
/home/itssahil/PROJECTS/Mol_Feturizer/New_Systems/rnas/4yb0

>  <Rbt.Executable>
rbdock ($Id: //depot/dev/client3/rdock/2013.1/src/exe/rbdock.cxx#4 $)

>  <Rbt.Library>
libRbt.so (2013.1, Build901 2013/11/27)

>  <Rbt.Parameter_File>
/export/apps/rDock/src/rDock_2013.1_src/data/scripts/dock_solv.prm

>  <Rbt.Receptor>
prm/pocket_docking_4.prm

>  <SCORE>
-53.6157

>  <SCORE.INTER>
-53.4899

>  <SCORE.INTER.CONST>
1

>  <SCORE.INTER.POLAR>
0

>  <SCORE.INTER.ROT>
2

>  <SCORE.INTER.SOLV>
31.2998

>  <SCORE.INTER.VDW>
-51.0265

>  <SCORE.INTER.norm>
-1.16282

>  <SCORE.INTRA>
-0.125847

>  <SCORE.INTRA.DIHEDRAL>
-0.0261793

>  <SCORE.INTRA.DIHEDRAL.0>
4.74153

>  <SCORE.INTRA.POLAR>
0

>  <SCORE.INTRA.POLAR.0>
0

>  <SCORE.INTRA.REPUL>
0

>  <SCORE.INTRA.REPUL.0>
0

>  <SCORE.INTRA.SOLV>
-0.0033653

>  <SCORE.INTRA.SOLV.lig_0>
-60.4375

>  <SCORE.INTRA.VDW>
-0.111075

>  <SCORE.INTRA.VDW.0>
-1.83689

>  <SCORE.INTRA.norm>
-0.00273581

>  <SCORE.RESTR>
0

>  <SCORE.RESTR.CAVITY>
0

>  <SCORE.RESTR.norm>
0

>  <SCORE.SYSTEM>
0

>  <SCORE.SYSTEM.CONST>
0

>  <SCORE.SYSTEM.DIHEDRAL>
0

>  <SCORE.SYSTEM.SOLV>
0

>  <SCORE.SYSTEM.norm>
0

>  <SCORE.heavy>
46

>  <SCORE.norm>
-1.16556

>  <RMSD>
0.546

$$$$
lig.pdb
 OpenBabel11021811523D
libRbt.so/2013.1/901 2013/11/27
 46 52  0  0  0  0  0  0  0  0999 V2000
  159.1319   41.7545  147.5295 P   0  0  2  0  0  0  0  0  0  0  0  0
  159.9313   40.8468  148.4387 O   0  0  0  0  0  0  0  0  0  0  0  0
  157.6615   41.4531  147.3940 O   0  0  0  0  0  0  0  0  0  0  0  0
  159.7721   41.8168  146.0560 O   0  0  0  0  0  0  0  0  0  0  0  0
  161.0455   41.2514  145.7733 C   0  0  0  0  0  0  0  0  0  0  0  0
  161.5694   41.7856  144.4504 C   0  0  1  0  0  0  0  0  0  0  0  0
  161.3926   40.7754  143.4675 O   0  0  0  0  0  0  0  0  0  0  0  0
  160.8671   43.0274  143.9160 C   0  0  1  0  0  0  0  0  0  0  0  0
  161.6829   44.1690  144.1344 O   0  0  0  0  0  0  0  0  0  0  0  0
  160.7966   42.7785  142.4261 C   0  0  1  0  0  0  0  0  0  0  0  0
  161.9667   43.3038  141.7960 O   0  0  0  0  0  0  0  0  0  0  0  0
  160.8460   41.2872  142.2617 C   0  0  2  0  0  0  0  0  0  0  0  0
  159.4660   40.7684  142.1090 N   0  0  0  0  0  0  0  0  0  0  0  0
  158.8248   39.9776  142.9870 C   0  0  0  0  0  0  0  0  0  0  0  0
  157.5839   39.6727  142.5369 N   0  0  0  0  0  0  0  0  0  0  0  0
  157.4134   40.2739  141.3460 C   0  0  0  0  0  0  0  0  0  0  0  0
  156.3330   40.3637  140.3357 C   0  0  0  0  0  0  0  0  0  0  0  0
  155.2464   39.7632  140.5165 O   0  0  0  0  0  0  0  0  0  0  0  0
  156.5623   41.1000  139.2349 N   0  0  0  0  0  0  0  0  0  0  0  0
  157.7309   41.7413  139.0449 C   0  0  0  0  0  0  0  0  0  0  0  0
  157.9041   42.4717  137.9207 N   0  0  0  0  0  0  0  0  0  0  0  0
  158.7567   41.7013  139.9251 N   0  0  0  0  0  0  0  0  0  0  0  0
  158.6596   40.9964  141.0726 C   0  0  0  0  0  0  0  0  0  0  0  0
  161.1537   45.6924  143.9468 P   0  0  2  0  0  0  0  0  0  0  0  0
  160.4584   45.8149  142.6127 O   0  0  0  0  0  0  0  0  0  0  0  0
  162.3242   46.5902  144.3016 O   0  0  0  0  0  0  0  0  0  0  0  0
  160.0229   45.8097  145.0945 O   0  0  0  0  0  0  0  0  0  0  0  0
  160.4007   46.0485  146.4497 C   0  0  0  0  0  0  0  0  0  0  0  0
  159.3058   45.6782  147.4550 C   0  0  1  0  0  0  0  0  0  0  0  0
  158.2618   46.6527  147.3970 O   0  0  0  0  0  0  0  0  0  0  0  0
  158.6525   44.3167  147.2281 C   0  0  1  0  0  0  0  0  0  0  0  0
  159.2596   43.2884  148.0091 O   0  0  0  0  0  0  0  0  0  0  0  0
  157.2196   44.5707  147.6574 C   0  0  1  0  0  0  0  0  0  0  0  0
  157.0671   44.3700  149.0653 O   0  0  0  0  0  0  0  0  0  0  0  0
  156.9706   46.0382  147.3781 C   0  0  2  0  0  0  0  0  0  0  0  0
  156.3879   46.1932  146.0222 N   0  0  0  0  0  0  0  0  0  0  0  0
  156.9599   46.8451  144.9905 C   0  0  0  0  0  0  0  0  0  0  0  0
  156.1849   46.8028  143.8712 N   0  0  0  0  0  0  0  0  0  0  0  0
  155.0834   46.0999  144.1792 C   0  0  0  0  0  0  0  0  0  0  0  0
  153.8464   45.6829  143.4709 C   0  0  0  0  0  0  0  0  0  0  0  0
  153.6356   45.9625  142.2711 O   0  0  0  0  0  0  0  0  0  0  0  0
  152.9566   44.9643  144.1576 N   0  0  0  0  0  0  0  0  0  0  0  0
  153.1392   44.6331  145.4452 C   0  0  0  0  0  0  0  0  0  0  0  0
  152.1729   43.9198  146.0425 N   0  0  0  0  0  0  0  0  0  0  0  0
  154.2338   44.9827  146.1607 N   0  0  0  0  0  0  0  0  0  0  0  0
  155.2238   45.7046  145.5950 C   0  0  0  0  0  0  0  0  0  0  0  0
  1  3  2  6  0  0  0
  1 32  1  0  0  0  0
  1  2  1  0  0  0  0
  1  4  1  0  0  0  0
  4  5  1  0  0  0  0
  6  5  1  1  0  0  0
  7  6  1  0  0  0  0
  8  6  1  0  0  0  0
  8 10  1  0  0  0  0
  8  9  1  6  0  0  0
 10 11  1  6  0  0  0
 12 13  1  1  0  0  0
 12  7  1  0  0  0  0
 12 10  1  0  0  0  0
 14 13  1  0  0  0  0
 15 16  1  0  0  0  0
 15 14  2  0  0  0  0
 16 23  2  0  0  0  0
 17 16  1  0  0  0  0
 17 19  1  0  0  0  0
 18 17  2  0  0  0  0
 19 20  2  0  0  0  0
 20 22  1  0  0  0  0
 20 21  1  0  0  0  0
 23 13  1  0  0  0  0
 23 22  1  0  0  0  0
 24 25  2  6  0  0  0
 24  9  1  0  0  0  0
 24 26  1  0  0  0  0
 27 28  1  0  0  0  0
 27 24  1  0  0  0  0
 29 30  1  6  0  0  0
 29 28  1  0  0  0  0
 31 32  1  1  0  0  0
 31 29  1  0  0  0  0
 33 34  1  1  0  0  0
 33 35  1  0  0  0  0
 33 31  1  0  0  0  0
 35 36  1  6  0  0  0
 35 30  1  0  0  0  0
 36 37  1  0  0  0  0
 38 37  2  0  0  0  0
 39 38  1  0  0  0  0
 40 41  2  0  0  0  0
 40 39  1  0  0  0  0
 42 40  1  0  0  0  0
 43 42  2  0  0  0  0
 43 45  1  0  0  0  0
 44 43  1  0  0  0  0
 45 46  1  0  0  0  0
 46 39  2  0  0  0  0
 46 36  1  0  0  0  0
M  END
>  <CHROM.1>
1.86085640,-2.08884398,158.27078371,43.49542828,144.34266713,-1.81899757
0.26243644,-2.09730665

>  <Name>
lig.pdb

>  <RI>
0

>  <Rbt.Current_Directory>
/home/itssahil/PROJECTS/Mol_Feturizer/New_Systems/rnas/4yb0

>  <Rbt.Executable>
rbdock ($Id: //depot/dev/client3/rdock/2013.1/src/exe/rbdock.cxx#4 $)

>  <Rbt.Library>
libRbt.so (2013.1, Build901 2013/11/27)

>  <Rbt.Parameter_File>
/export/apps/rDock/src/rDock_2013.1_src/data/scripts/dock_solv.prm

>  <Rbt.Receptor>
prm/pocket_docking_5.prm

>  <SCORE>
-47.7676

>  <SCORE.INTER>
-47.8141

>  <SCORE.INTER.CONST>
1

>  <SCORE.INTER.POLAR>
0

>  <SCORE.INTER.ROT>
2

>  <SCORE.INTER.SOLV>
28.1008

>  <SCORE.INTER.VDW>
-46.1763

>  <SCORE.INTER.norm>
-1.03944

>  <SCORE.INTRA>
0.0465195

>  <SCORE.INTRA.DIHEDRAL>
0.0450348

>  <SCORE.INTRA.DIHEDRAL.0>
4.74153

>  <SCORE.INTRA.POLAR>
0

>  <SCORE.INTRA.POLAR.0>
0

>  <SCORE.INTRA.REPUL>
0

>  <SCORE.INTRA.REPUL.0>
0

>  <SCORE.INTRA.SOLV>
0.0636921

>  <SCORE.INTRA.SOLV.lig_0>
-60.4375

>  <SCORE.INTRA.VDW>
-0.007844

>  <SCORE.INTRA.VDW.0>
-1.83689

>  <SCORE.INTRA.norm>
0.00101129

>  <SCORE.RESTR>
0

>  <SCORE.RESTR.CAVITY>
0

>  <SCORE.RESTR.norm>
0

>  <SCORE.SYSTEM>
0

>  <SCORE.SYSTEM.CONST>
0

>  <SCORE.SYSTEM.DIHEDRAL>
0

>  <SCORE.SYSTEM.SOLV>
0

>  <SCORE.SYSTEM.norm>
0

>  <SCORE.heavy>
46

>  <SCORE.norm>
-1.03843

>  <RMSD>
1.236

$$$$
lig.pdb
 OpenBabel11021811523D
libRbt.so/2013.1/901 2013/11/27
 46 52  0  0  0  0  0  0  0  0999 V2000
  159.1475   41.7434  147.5381 P   0  0  2  0  0  0  0  0  0  0  0  0
  159.9467   40.8407  148.4525 O   0  0  0  0  0  0  0  0  0  0  0  0
  157.6802   41.4321  147.3920 O   0  0  0  0  0  0  0  0  0  0  0  0
  159.7978   41.8112  146.0693 O   0  0  0  0  0  0  0  0  0  0  0  0
  161.0771   41.2549  145.7954 C   0  0  0  0  0  0  0  0  0  0  0  0
  161.6067   41.7936  144.4766 C   0  0  1  0  0  0  0  0  0  0  0  0
  161.4439   40.7828  143.4918 O   0  0  0  0  0  0  0  0  0  0  0  0
  160.8997   43.0308  143.9380 C   0  0  1  0  0  0  0  0  0  0  0  0
  161.7060   44.1779  144.1629 O   0  0  0  0  0  0  0  0  0  0  0  0
  160.8416   42.7825  142.4474 C   0  0  1  0  0  0  0  0  0  0  0  0
  162.0125   43.3163  141.8261 O   0  0  0  0  0  0  0  0  0  0  0  0
  160.9024   41.2917  142.2825 C   0  0  2  0  0  0  0  0  0  0  0  0
  159.5272   40.7634  142.1196 N   0  0  0  0  0  0  0  0  0  0  0  0
  158.8824   39.9739  142.9961 C   0  0  0  0  0  0  0  0  0  0  0  0
  157.6479   39.6587  142.5359 N   0  0  0  0  0  0  0  0  0  0  0  0
  157.4851   40.2518  141.3398 C   0  0  0  0  0  0  0  0  0  0  0  0
  156.4141   40.3288  140.3186 C   0  0  0  0  0  0  0  0  0  0  0  0
  155.3295   39.7228  140.4925 O   0  0  0  0  0  0  0  0  0  0  0  0
  156.6495   41.0601  139.2157 N   0  0  0  0  0  0  0  0  0  0  0  0
  157.8159   41.7075  139.0331 C   0  0  0  0  0  0  0  0  0  0  0  0
  157.9954   42.4323  137.9063 N   0  0  0  0  0  0  0  0  0  0  0  0
  158.8334   41.6791  139.9234 N   0  0  0  0  0  0  0  0  0  0  0  0
  158.7295   40.9803  141.0741 C   0  0  0  0  0  0  0  0  0  0  0  0
  161.1675   45.6978  143.9726 P   0  0  2  0  0  0  0  0  0  0  0  0
  160.4810   45.8163  142.6336 O   0  0  0  0  0  0  0  0  0  0  0  0
  162.3293   46.6033  144.3362 O   0  0  0  0  0  0  0  0  0  0  0  0
  160.0278   45.8064  145.1121 O   0  0  0  0  0  0  0  0  0  0  0  0
  160.3943   46.0469  146.4702 C   0  0  0  0  0  0  0  0  0  0  0  0
  159.2947   45.6684  147.4674 C   0  0  1  0  0  0  0  0  0  0  0  0
  158.2445   46.6356  147.4026 O   0  0  0  0  0  0  0  0  0  0  0  0
  158.6526   44.3025  147.2349 C   0  0  1  0  0  0  0  0  0  0  0  0
  159.2612   43.2779  148.0197 O   0  0  0  0  0  0  0  0  0  0  0  0
  157.2149   44.5463  147.6541 C   0  0  1  0  0  0  0  0  0  0  0  0
  157.0537   44.3435  149.0608 O   0  0  0  0  0  0  0  0  0  0  0  0
  156.9578   46.0122  147.3741 C   0  0  2  0  0  0  0  0  0  0  0  0
  156.3837   46.1641  146.0141 N   0  0  0  0  0  0  0  0  0  0  0  0
  156.9797   46.7792  144.9734 C   0  0  0  0  0  0  0  0  0  0  0  0
  156.2062   46.7443  143.8527 N   0  0  0  0  0  0  0  0  0  0  0  0
  155.0810   46.0841  144.1691 C   0  0  0  0  0  0  0  0  0  0  0  0
  153.8323   45.6971  143.4643 C   0  0  0  0  0  0  0  0  0  0  0  0
  153.6338   45.9636  142.2595 O   0  0  0  0  0  0  0  0  0  0  0  0
  152.9173   45.0203  144.1603 N   0  0  0  0  0  0  0  0  0  0  0  0
  153.0856   44.7048  145.4537 C   0  0  0  0  0  0  0  0  0  0  0  0
  152.0945   44.0343  146.0600 N   0  0  0  0  0  0  0  0  0  0  0  0
  154.1898   45.0292  146.1664 N   0  0  0  0  0  0  0  0  0  0  0  0
  155.2048   45.7079  145.5917 C   0  0  0  0  0  0  0  0  0  0  0  0
  1  3  2  6  0  0  0
  1 32  1  0  0  0  0
  1  2  1  0  0  0  0
  1  4  1  0  0  0  0
  4  5  1  0  0  0  0
  6  5  1  1  0  0  0
  7  6  1  0  0  0  0
  8  6  1  0  0  0  0
  8 10  1  0  0  0  0
  8  9  1  6  0  0  0
 10 11  1  6  0  0  0
 12 13  1  1  0  0  0
 12  7  1  0  0  0  0
 12 10  1  0  0  0  0
 14 13  1  0  0  0  0
 15 16  1  0  0  0  0
 15 14  2  0  0  0  0
 16 23  2  0  0  0  0
 17 16  1  0  0  0  0
 17 19  1  0  0  0  0
 18 17  2  0  0  0  0
 19 20  2  0  0  0  0
 20 22  1  0  0  0  0
 20 21  1  0  0  0  0
 23 13  1  0  0  0  0
 23 22  1  0  0  0  0
 24 25  2  6  0  0  0
 24  9  1  0  0  0  0
 24 26  1  0  0  0  0
 27 28  1  0  0  0  0
 27 24  1  0  0  0  0
 29 30  1  6  0  0  0
 29 28  1  0  0  0  0
 31 32  1  1  0  0  0
 31 29  1  0  0  0  0
 33 34  1  1  0  0  0
 33 35  1  0  0  0  0
 33 31  1  0  0  0  0
 35 36  1  6  0  0  0
 35 30  1  0  0  0  0
 36 37  1  0  0  0  0
 38 37  2  0  0  0  0
 39 38  1  0  0  0  0
 40 41  2  0  0  0  0
 40 39  1  0  0  0  0
 42 40  1  0  0  0  0
 43 42  2  0  0  0  0
 43 45  1  0  0  0  0
 44 43  1  0  0  0  0
 45 46  1  0  0  0  0
 46 39  2  0  0  0  0
 46 36  1  0  0  0  0
M  END
>  <CHROM.1>
2.26629621,0.45093243,158.29180026,43.49039683,144.34927460,-1.86648814,0.26722166
-2.09402053

>  <Name>
lig.pdb

>  <RI>
0

>  <Rbt.Current_Directory>
/home/itssahil/PROJECTS/Mol_Feturizer/New_Systems/rnas/4yb0

>  <Rbt.Executable>
rbdock ($Id: //depot/dev/client3/rdock/2013.1/src/exe/rbdock.cxx#4 $)

>  <Rbt.Library>
libRbt.so (2013.1, Build901 2013/11/27)

>  <Rbt.Parameter_File>
/export/apps/rDock/src/rDock_2013.1_src/data/scripts/dock_solv.prm

>  <Rbt.Receptor>
prm/pocket_docking_5.prm

>  <SCORE>
-47.8462

>  <SCORE.INTER>
-47.9033

>  <SCORE.INTER.CONST>
1

>  <SCORE.INTER.POLAR>
0

>  <SCORE.INTER.ROT>
2

>  <SCORE.INTER.SOLV>
28.3005

>  <SCORE.INTER.VDW>
-46.3024

>  <SCORE.INTER.norm>
-1.04138

>  <SCORE.INTRA>
0.0571874

>  <SCORE.INTRA.DIHEDRAL>
0.0520393

>  <SCORE.INTRA.DIHEDRAL.0>
4.74153

>  <SCORE.INTRA.POLAR>
0

>  <SCORE.INTRA.POLAR.0>
0

>  <SCORE.INTRA.REPUL>
0

>  <SCORE.INTRA.REPUL.0>
0

>  <SCORE.INTRA.SOLV>
0.0737541

>  <SCORE.INTRA.SOLV.lig_0>
-60.4375

>  <SCORE.INTRA.VDW>
-0.0057093

>  <SCORE.INTRA.VDW.0>
-1.83689

>  <SCORE.INTRA.norm>
0.0012432

>  <SCORE.RESTR>
0

>  <SCORE.RESTR.CAVITY>
0

>  <SCORE.RESTR.norm>
0

>  <SCORE.SYSTEM>
0

>  <SCORE.SYSTEM.CONST>
0

>  <SCORE.SYSTEM.DIHEDRAL>
0

>  <SCORE.SYSTEM.SOLV>
0

>  <SCORE.SYSTEM.norm>
0

>  <SCORE.heavy>
46

>  <SCORE.norm>
-1.04013

>  <RMSD>
1.237

$$$$
lig.pdb
 OpenBabel11021811523D
libRbt.so/2013.1/901 2013/11/27
 46 52  0  0  0  0  0  0  0  0999 V2000
  160.0962   47.1018  143.9312 P   0  0  2  0  0  0  0  0  0  0  0  0
  160.7203   48.3111  144.5927 O   0  0  0  0  0  0  0  0  0  0  0  0
  159.4589   47.3204  142.5831 O   0  0  0  0  0  0  0  0  0  0  0  0
  159.0145   46.4025  144.8934 O   0  0  0  0  0  0  0  0  0  0  0  0
  158.8738   46.7834  146.2558 C   0  0  0  0  0  0  0  0  0  0  0  0
  158.0889   45.7251  147.0132 C   0  0  1  0  0  0  0  0  0  0  0  0
  156.7661   46.2082  147.1994 O   0  0  0  0  0  0  0  0  0  0  0  0
  157.9558   44.3774  146.3155 C   0  0  1  0  0  0  0  0  0  0  0  0
  158.8409   43.4408  146.9121 O   0  0  0  0  0  0  0  0  0  0  0  0
  156.5395   43.9540  146.6341 C   0  0  1  0  0  0  0  0  0  0  0  0
  156.5253   43.2023  147.8493 O   0  0  0  0  0  0  0  0  0  0  0  0
  155.7868   45.2253  146.9000 C   0  0  2  0  0  0  0  0  0  0  0  0
  155.0679   45.6319  145.6693 N   0  0  0  0  0  0  0  0  0  0  0  0
  155.5100   46.5186  144.7605 C   0  0  0  0  0  0  0  0  0  0  0  0
  154.6043   46.6734  143.7651 N   0  0  0  0  0  0  0  0  0  0  0  0
  153.5545   45.8752  144.0291 C   0  0  0  0  0  0  0  0  0  0  0  0
  152.2596   45.5583  143.3819 C   0  0  0  0  0  0  0  0  0  0  0  0
  151.9367   46.1170  142.3061 O   0  0  0  0  0  0  0  0  0  0  0  0
  151.4577   44.6649  143.9862 N   0  0  0  0  0  0  0  0  0  0  0  0
  151.8082   44.0691  145.1417 C   0  0  0  0  0  0  0  0  0  0  0  0
  150.9639   43.1745  145.7020 N   0  0  0  0  0  0  0  0  0  0  0  0
  152.9730   44.3125  145.7843 N   0  0  0  0  0  0  0  0  0  0  0  0
  153.8701   45.1902  145.2865 C   0  0  0  0  0  0  0  0  0  0  0  0
  159.1730   41.9896  146.2643 P   0  0  2  0  0  0  0  0  0  0  0  0
  157.8798   41.3022  145.8992 O   0  0  0  0  0  0  0  0  0  0  0  0
  160.1695   41.3305  147.1994 O   0  0  0  0  0  0  0  0  0  0  0  0
  159.9155   42.3876  144.8860 O   0  0  0  0  0  0  0  0  0  0  0  0
  161.2929   42.7602  144.8969 C   0  0  0  0  0  0  0  0  0  0  0  0
  161.7178   43.5352  143.6457 C   0  0  1  0  0  0  0  0  0  0  0  0
  161.7950   42.6368  142.5368 O   0  0  0  0  0  0  0  0  0  0  0  0
  160.7768   44.6653  143.2340 C   0  0  1  0  0  0  0  0  0  0  0  0
  161.1878   45.9285  143.7553 O   0  0  0  0  0  0  0  0  0  0  0  0
  160.8719   44.6292  141.7202 C   0  0  1  0  0  0  0  0  0  0  0  0
  161.9695   45.4227  141.2602 O   0  0  0  0  0  0  0  0  0  0  0  0
  161.1761   43.1873  141.3710 C   0  0  2  0  0  0  0  0  0  0  0  0
  159.9077   42.4606  141.1157 N   0  0  0  0  0  0  0  0  0  0  0  0
  159.1191   42.6120  140.0331 C   0  0  0  0  0  0  0  0  0  0  0  0
  158.0299   41.7956  140.0806 N   0  0  0  0  0  0  0  0  0  0  0  0
  158.1141   41.0895  141.2193 C   0  0  0  0  0  0  0  0  0  0  0  0
  157.2937   40.0571  141.9023 C   0  0  0  0  0  0  0  0  0  0  0  0
  156.2346   39.6110  141.4109 O   0  0  0  0  0  0  0  0  0  0  0  0
  157.7397   39.5895  143.0694 N   0  0  0  0  0  0  0  0  0  0  0  0
  158.8734   40.0313  143.6355 C   0  0  0  0  0  0  0  0  0  0  0  0
  159.2205   39.5016  144.8180 N   0  0  0  0  0  0  0  0  0  0  0  0
  159.6696   40.9748  143.0804 N   0  0  0  0  0  0  0  0  0  0  0  0
  159.3499   41.5340  141.8945 C   0  0  0  0  0  0  0  0  0  0  0  0
  1  3  2  6  0  0  0
  1 32  1  0  0  0  0
  1  2  1  0  0  0  0
  1  4  1  0  0  0  0
  4  5  1  0  0  0  0
  6  5  1  6  0  0  0
  7  6  1  0  0  0  0
  8  6  1  0  0  0  0
  8 10  1  0  0  0  0
  8  9  1  1  0  0  0
 10 11  1  1  0  0  0
 12 13  1  6  0  0  0
 12  7  1  0  0  0  0
 12 10  1  0  0  0  0
 14 13  1  0  0  0  0
 15 16  1  0  0  0  0
 15 14  2  0  0  0  0
 16 23  2  0  0  0  0
 17 16  1  0  0  0  0
 17 19  1  0  0  0  0
 18 17  2  0  0  0  0
 19 20  2  0  0  0  0
 20 22  1  0  0  0  0
 20 21  1  0  0  0  0
 23 13  1  0  0  0  0
 23 22  1  0  0  0  0
 24 25  2  6  0  0  0
 24  9  1  0  0  0  0
 24 26  1  0  0  0  0
 27 28  1  0  0  0  0
 27 24  1  0  0  0  0
 29 30  1  6  0  0  0
 29 28  1  0  0  0  0
 31 32  1  1  0  0  0
 31 29  1  0  0  0  0
 33 34  1  1  0  0  0
 33 35  1  0  0  0  0
 33 31  1  0  0  0  0
 35 36  1  1  0  0  0
 35 30  1  0  0  0  0
 36 37  1  0  0  0  0
 38 37  2  0  0  0  0
 39 38  1  0  0  0  0
 40 41  2  0  0  0  0
 40 39  1  0  0  0  0
 42 40  1  0  0  0  0
 43 42  2  0  0  0  0
 43 45  1  0  0  0  0
 44 43  1  0  0  0  0
 45 46  1  0  0  0  0
 46 39  2  0  0  0  0
 46 36  1  0  0  0  0
M  END
>  <CHROM.1>
19.16050519,-173.10469446,157.87145362,43.86868713,144.20982849,-0.33648834
0.16591908,0.35785704

>  <Name>
lig.pdb

>  <RI>
0

>  <Rbt.Current_Directory>
/home/itssahil/PROJECTS/Mol_Feturizer/New_Systems/rnas/4yb0

>  <Rbt.Executable>
rbdock ($Id: //depot/dev/client3/rdock/2013.1/src/exe/rbdock.cxx#4 $)

>  <Rbt.Library>
libRbt.so (2013.1, Build901 2013/11/27)

>  <Rbt.Parameter_File>
/export/apps/rDock/src/rDock_2013.1_src/data/scripts/dock_solv.prm

>  <Rbt.Receptor>
prm/pocket_docking_2.prm

>  <SCORE>
-4.69107

>  <SCORE.INTER>
-9.91048

>  <SCORE.INTER.CONST>
1

>  <SCORE.INTER.POLAR>
0

>  <SCORE.INTER.ROT>
2

>  <SCORE.INTER.SOLV>
27.2275

>  <SCORE.INTER.VDW>
-20.6162

>  <SCORE.INTER.norm>
-0.215445

>  <SCORE.INTRA>
4.34664

>  <SCORE.INTRA.DIHEDRAL>
-0.000398157

>  <SCORE.INTRA.DIHEDRAL.0>
4.74153

>  <SCORE.INTRA.POLAR>
0

>  <SCORE.INTRA.POLAR.0>
0

>  <SCORE.INTRA.REPUL>
0.189625

>  <SCORE.INTRA.REPUL.0>
0

>  <SCORE.INTRA.SOLV>
4.48684

>  <SCORE.INTRA.SOLV.lig_0>
-60.4375

>  <SCORE.INTRA.VDW>
1.1553

>  <SCORE.INTRA.VDW.0>
-1.83689

>  <SCORE.INTRA.norm>
0.0944922

>  <SCORE.RESTR>
0.872772

>  <SCORE.RESTR.CAVITY>
0.872772

>  <SCORE.RESTR.norm>
0.0189733

>  <SCORE.SYSTEM>
0

>  <SCORE.SYSTEM.CONST>
0

>  <SCORE.SYSTEM.DIHEDRAL>
0

>  <SCORE.SYSTEM.SOLV>
0

>  <SCORE.SYSTEM.norm>
0

>  <SCORE.heavy>
46

>  <SCORE.norm>
-0.10198

>  <RMSD>
1.982

$$$$
lig.pdb
 OpenBabel11021811523D
libRbt.so/2013.1/901 2013/11/27
 46 52  0  0  0  0  0  0  0  0999 V2000
  159.2674   41.6736  146.2939 P   0  0  2  0  0  0  0  0  0  0  0  0
  160.2171   40.7094  146.9707 O   0  0  0  0  0  0  0  0  0  0  0  0
  157.8698   41.1753  146.0304 O   0  0  0  0  0  0  0  0  0  0  0  0
  159.8774   42.2207  144.9106 O   0  0  0  0  0  0  0  0  0  0  0  0
  161.2270   41.9694  144.5413 C   0  0  0  0  0  0  0  0  0  0  0  0
  161.6424   42.9071  143.4197 C   0  0  1  0  0  0  0  0  0  0  0  0
  161.6351   42.1701  142.2053 O   0  0  0  0  0  0  0  0  0  0  0  0
  160.7335   44.1087  143.1941 C   0  0  1  0  0  0  0  0  0  0  0  0
  161.3425   45.2754  143.7276 O   0  0  0  0  0  0  0  0  0  0  0  0
  160.6967   44.2448  141.6884 C   0  0  1  0  0  0  0  0  0  0  0  0
  161.7548   45.1035  141.2583 O   0  0  0  0  0  0  0  0  0  0  0  0
  161.0005   42.8767  141.1505 C   0  0  2  0  0  0  0  0  0  0  0  0
  159.7292   42.1910  140.8181 N   0  0  0  0  0  0  0  0  0  0  0  0
  159.0075   42.3779  139.6993 C   0  0  0  0  0  0  0  0  0  0  0  0
  157.8932   41.6077  139.7159 N   0  0  0  0  0  0  0  0  0  0  0  0
  157.8878   40.9076  140.8643 C   0  0  0  0  0  0  0  0  0  0  0  0
  157.0007   39.9096  141.5068 C   0  0  0  0  0  0  0  0  0  0  0  0
  155.9452   39.5417  140.9371 O   0  0  0  0  0  0  0  0  0  0  0  0
  157.3657   39.4249  142.7062 N   0  0  0  0  0  0  0  0  0  0  0  0
  158.4987   39.8242  143.3142 C   0  0  0  0  0  0  0  0  0  0  0  0
  158.8182   39.2991  144.5182 N   0  0  0  0  0  0  0  0  0  0  0  0
  159.3516   40.7302  142.7844 N   0  0  0  0  0  0  0  0  0  0  0  0
  159.1041   41.2973  141.5843 C   0  0  0  0  0  0  0  0  0  0  0  0
  160.5581   46.6844  143.9156 P   0  0  2  0  0  0  0  0  0  0  0  0
  159.8431   47.0288  142.6317 O   0  0  0  0  0  0  0  0  0  0  0  0
  161.5593   47.6433  144.5320 O   0  0  0  0  0  0  0  0  0  0  0  0
  159.4318   46.3100  145.0114 O   0  0  0  0  0  0  0  0  0  0  0  0
  159.7722   46.2506  146.3959 C   0  0  0  0  0  0  0  0  0  0  0  0
  158.7640   45.4552  147.2311 C   0  0  1  0  0  0  0  0  0  0  0  0
  157.5678   46.2221  147.3844 O   0  0  0  0  0  0  0  0  0  0  0  0
  158.3529   44.1088  146.6392 C   0  0  1  0  0  0  0  0  0  0  0  0
  159.1330   43.0306  147.1540 O   0  0  0  0  0  0  0  0  0  0  0  0
  156.9006   43.9993  147.0645 C   0  0  1  0  0  0  0  0  0  0  0  0
  156.7945   43.4192  148.3676 O   0  0  0  0  0  0  0  0  0  0  0  0
  156.4013   45.4258  147.1603 C   0  0  2  0  0  0  0  0  0  0  0  0
  155.7914   45.8256  145.8678 N   0  0  0  0  0  0  0  0  0  0  0  0
  156.3785   46.5876  144.9238 C   0  0  0  0  0  0  0  0  0  0  0  0
  155.5696   46.7697  143.8432 N   0  0  0  0  0  0  0  0  0  0  0  0
  154.4293   46.1041  144.0861 C   0  0  0  0  0  0  0  0  0  0  0  0
  153.1447   45.8851  143.3738 C   0  0  0  0  0  0  0  0  0  0  0  0
  152.9193   46.3586  142.2393 O   0  0  0  0  0  0  0  0  0  0  0  0
  152.2256   45.1317  143.9799 N   0  0  0  0  0  0  0  0  0  0  0  0
  152.4217   44.5958  145.1945 C   0  0  0  0  0  0  0  0  0  0  0  0
  151.4241   43.8664  145.7161 N   0  0  0  0  0  0  0  0  0  0  0  0
  153.5597   44.7568  145.9095 N   0  0  0  0  0  0  0  0  0  0  0  0
  154.5825   45.4881  145.4194 C   0  0  0  0  0  0  0  0  0  0  0  0
  1  3  2  6  0  0  0
  1 32  1  0  0  0  0
  1  2  1  0  0  0  0
  1  4  1  0  0  0  0
  4  5  1  0  0  0  0
  6  5  1  1  0  0  0
  7  6  1  0  0  0  0
  8  6  1  0  0  0  0
  8 10  1  0  0  0  0
  8  9  1  1  0  0  0
 10 11  1  6  0  0  0
 12 13  1  1  0  0  0
 12  7  1  0  0  0  0
 12 10  1  0  0  0  0
 14 13  1  0  0  0  0
 15 16  1  0  0  0  0
 15 14  2  0  0  0  0
 16 23  2  0  0  0  0
 17 16  1  0  0  0  0
 17 19  1  0  0  0  0
 18 17  2  0  0  0  0
 19 20  2  0  0  0  0
 20 22  1  0  0  0  0
 20 21  1  0  0  0  0
 23 13  1  0  0  0  0
 23 22  1  0  0  0  0
 24 25  2  6  0  0  0
 24  9  1  0  0  0  0
 24 26  1  0  0  0  0
 27 28  1  0  0  0  0
 27 24  1  0  0  0  0
 29 30  1  6  0  0  0
 29 28  1  0  0  0  0
 31 32  1  1  0  0  0
 31 29  1  0  0  0  0
 33 34  1  1  0  0  0
 33 35  1  0  0  0  0
 33 31  1  0  0  0  0
 35 36  1  6  0  0  0
 35 30  1  0  0  0  0
 36 37  1  0  0  0  0
 38 37  2  0  0  0  0
 39 38  1  0  0  0  0
 40 41  2  0  0  0  0
 40 39  1  0  0  0  0
 42 40  1  0  0  0  0
 43 42  2  0  0  0  0
 43 45  1  0  0  0  0
 44 43  1  0  0  0  0
 45 46  1  0  0  0  0
 46 39  2  0  0  0  0
 46 36  1  0  0  0  0
M  END
>  <CHROM.1>
-164.30238459,13.43368408,158.11785257,43.71068790,144.17302587,-0.61274355
0.09289836,0.59297995

>  <Name>
lig.pdb

>  <RI>
0

>  <Rbt.Current_Directory>
/home/itssahil/PROJECTS/Mol_Feturizer/New_Systems/rnas/4yb0

>  <Rbt.Executable>
rbdock ($Id: //depot/dev/client3/rdock/2013.1/src/exe/rbdock.cxx#4 $)

>  <Rbt.Library>
libRbt.so (2013.1, Build901 2013/11/27)

>  <Rbt.Parameter_File>
/export/apps/rDock/src/rDock_2013.1_src/data/scripts/dock_solv.prm

>  <Rbt.Receptor>
prm/pocket_docking_2.prm

>  <SCORE>
-14.2484

>  <SCORE.INTER>
-15.8431

>  <SCORE.INTER.CONST>
1

>  <SCORE.INTER.POLAR>
0

>  <SCORE.INTER.ROT>
2

>  <SCORE.INTER.SOLV>
28.4119

>  <SCORE.INTER.VDW>
-24.966

>  <SCORE.INTER.norm>
-0.344415

>  <SCORE.INTRA>
0.792773

>  <SCORE.INTRA.DIHEDRAL>
0.130303

>  <SCORE.INTRA.DIHEDRAL.0>
4.74153

>  <SCORE.INTRA.POLAR>
0

>  <SCORE.INTRA.POLAR.0>
0

>  <SCORE.INTRA.REPUL>
0

>  <SCORE.INTRA.REPUL.0>
0

>  <SCORE.INTRA.SOLV>
3.95767

>  <SCORE.INTRA.SOLV.lig_0>
-60.4375

>  <SCORE.INTRA.VDW>
-1.25121

>  <SCORE.INTRA.VDW.0>
-1.83689

>  <SCORE.INTRA.norm>
0.0172342

>  <SCORE.RESTR>
0.801952

>  <SCORE.RESTR.CAVITY>
0.801952

>  <SCORE.RESTR.norm>
0.0174337

>  <SCORE.SYSTEM>
0

>  <SCORE.SYSTEM.CONST>
0

>  <SCORE.SYSTEM.DIHEDRAL>
0

>  <SCORE.SYSTEM.SOLV>
0

>  <SCORE.SYSTEM.norm>
0

>  <SCORE.heavy>
46

>  <SCORE.norm>
-0.309748

>  <RMSD>
2.003

$$$$
lig.pdb
 OpenBabel11021811523D
libRbt.so/2013.1/901 2013/11/27
 46 52  0  0  0  0  0  0  0  0999 V2000
  159.2529   41.6831  146.3155 P   0  0  2  0  0  0  0  0  0  0  0  0
  160.1898   40.6839  146.9585 O   0  0  0  0  0  0  0  0  0  0  0  0
  157.8467   41.2149  146.0426 O   0  0  0  0  0  0  0  0  0  0  0  0
  159.8663   42.2628  144.9471 O   0  0  0  0  0  0  0  0  0  0  0  0
  161.2105   42.0020  144.5647 C   0  0  0  0  0  0  0  0  0  0  0  0
  161.6364   42.9670  143.4706 C   0  0  1  0  0  0  0  0  0  0  0  0
  161.6131   42.2677  142.2343 O   0  0  0  0  0  0  0  0  0  0  0  0
  160.7457   44.1890  143.2856 C   0  0  1  0  0  0  0  0  0  0  0  0
  161.3748   45.3291  143.8520 O   0  0  0  0  0  0  0  0  0  0  0  0
  160.7055   44.3718  141.7849 C   0  0  1  0  0  0  0  0  0  0  0  0
  161.7754   45.2266  141.3769 O   0  0  0  0  0  0  0  0  0  0  0  0
  160.9858   43.0162  141.2042 C   0  0  2  0  0  0  0  0  0  0  0  0
  159.7027   42.3609  140.8563 N   0  0  0  0  0  0  0  0  0  0  0  0
  158.9689   42.6093  139.7575 C   0  0  0  0  0  0  0  0  0  0  0  0
  157.8462   41.8510  139.7519 N   0  0  0  0  0  0  0  0  0  0  0  0
  157.8477   41.0964  140.8652 C   0  0  0  0  0  0  0  0  0  0  0  0
  156.9577   40.0780  141.4708 C   0  0  0  0  0  0  0  0  0  0  0  0
  155.8910   39.7492  140.8982 O   0  0  0  0  0  0  0  0  0  0  0  0
  157.3327   39.5322  142.6404 N   0  0  0  0  0  0  0  0  0  0  0  0
  158.4779   39.8896  143.2518 C   0  0  0  0  0  0  0  0  0  0  0  0
  158.8069   39.3036  144.4247 N   0  0  0  0  0  0  0  0  0  0  0  0
  159.3340   40.8109  142.7548 N   0  0  0  0  0  0  0  0  0  0  0  0
  159.0775   41.4379  141.5868 C   0  0  0  0  0  0  0  0  0  0  0  0
  160.6133   46.7438  144.0863 P   0  0  2  0  0  0  0  0  0  0  0  0
  159.8991   47.1384  142.8165 O   0  0  0  0  0  0  0  0  0  0  0  0
  161.6317   47.6676  144.7276 O   0  0  0  0  0  0  0  0  0  0  0  0
  159.4853   46.3535  145.1748 O   0  0  0  0  0  0  0  0  0  0  0  0
  159.8298   46.2464  146.5554 C   0  0  0  0  0  0  0  0  0  0  0  0
  158.8123   45.4415  147.3700 C   0  0  1  0  0  0  0  0  0  0  0  0
  157.6288   46.2220  147.5517 O   0  0  0  0  0  0  0  0  0  0  0  0
  158.3779   44.1205  146.7389 C   0  0  1  0  0  0  0  0  0  0  0  0
  159.1429   43.0150  147.2173 O   0  0  0  0  0  0  0  0  0  0  0  0
  156.9257   44.0206  147.1667 C   0  0  1  0  0  0  0  0  0  0  0  0
  156.8152   43.4026  148.4518 O   0  0  0  0  0  0  0  0  0  0  0  0
  156.4491   45.4511  147.3081 C   0  0  2  0  0  0  0  0  0  0  0  0
  155.8409   45.8998  146.0310 N   0  0  0  0  0  0  0  0  0  0  0  0
  156.4183   46.7198  145.1306 C   0  0  0  0  0  0  0  0  0  0  0  0
  155.6142   46.9364  144.0527 N   0  0  0  0  0  0  0  0  0  0  0  0
  154.4874   46.2345  144.2525 C   0  0  0  0  0  0  0  0  0  0  0  0
  153.2139   46.0220  143.5185 C   0  0  0  0  0  0  0  0  0  0  0  0
  152.9871   46.5452  142.4063 O   0  0  0  0  0  0  0  0  0  0  0  0
  152.3072   45.2197  144.0788 N   0  0  0  0  0  0  0  0  0  0  0  0
  152.5055   44.6297  145.2677 C   0  0  0  0  0  0  0  0  0  0  0  0
  151.5204   43.8538  145.7441 N   0  0  0  0  0  0  0  0  0  0  0  0
  153.6337   44.7809  146.0002 N   0  0  0  0  0  0  0  0  0  0  0  0
  154.6437   45.5578  145.5556 C   0  0  0  0  0  0  0  0  0  0  0  0
  1  3  2  6  0  0  0
  1 32  1  0  0  0  0
  1  2  1  0  0  0  0
  1  4  1  0  0  0  0
  4  5  1  0  0  0  0
  6  5  1  1  0  0  0
  7  6  1  0  0  0  0
  8  6  1  0  0  0  0
  8 10  1  0  0  0  0
  8  9  1  1  0  0  0
 10 11  1  6  0  0  0
 12 13  1  1  0  0  0
 12  7  1  0  0  0  0
 12 10  1  0  0  0  0
 14 13  1  0  0  0  0
 15 16  1  0  0  0  0
 15 14  2  0  0  0  0
 16 23  2  0  0  0  0
 17 16  1  0  0  0  0
 17 19  1  0  0  0  0
 18 17  2  0  0  0  0
 19 20  2  0  0  0  0
 20 22  1  0  0  0  0
 20 21  1  0  0  0  0
 23 13  1  0  0  0  0
 23 22  1  0  0  0  0
 24 25  2  6  0  0  0
 24  9  1  0  0  0  0
 24 26  1  0  0  0  0
 27 28  1  0  0  0  0
 27 24  1  0  0  0  0
 29 30  1  6  0  0  0
 29 28  1  0  0  0  0
 31 32  1  1  0  0  0
 31 29  1  0  0  0  0
 33 34  1  1  0  0  0
 33 35  1  0  0  0  0
 33 31  1  0  0  0  0
 35 36  1  6  0  0  0
 35 30  1  0  0  0  0
 36 37  1  0  0  0  0
 38 37  2  0  0  0  0
 39 38  1  0  0  0  0
 40 41  2  0  0  0  0
 40 39  1  0  0  0  0
 42 40  1  0  0  0  0
 43 42  2  0  0  0  0
 43 45  1  0  0  0  0
 44 43  1  0  0  0  0
 45 46  1  0  0  0  0
 46 39  2  0  0  0  0
 46 36  1  0  0  0  0
M  END
>  <CHROM.1>
-165.47246114,10.91357381,158.13624412,43.78643630,144.25332660,-0.63330301
0.09017882,0.62248552

>  <Name>
lig.pdb

>  <RI>
0

>  <Rbt.Current_Directory>
/home/itssahil/PROJECTS/Mol_Feturizer/New_Systems/rnas/4yb0

>  <Rbt.Executable>
rbdock ($Id: //depot/dev/client3/rdock/2013.1/src/exe/rbdock.cxx#4 $)

>  <Rbt.Library>
libRbt.so (2013.1, Build901 2013/11/27)

>  <Rbt.Parameter_File>
/export/apps/rDock/src/rDock_2013.1_src/data/scripts/dock_solv.prm

>  <Rbt.Receptor>
prm/pocket_docking_8.prm

>  <SCORE>
-16.0898

>  <SCORE.INTER>
-16.5522

>  <SCORE.INTER.CONST>
1

>  <SCORE.INTER.POLAR>
0

>  <SCORE.INTER.ROT>
2

>  <SCORE.INTER.SOLV>
28.3179

>  <SCORE.INTER.VDW>
-25.4074

>  <SCORE.INTER.norm>
-0.35983

>  <SCORE.INTRA>
0.462346

>  <SCORE.INTRA.DIHEDRAL>
0.121881

>  <SCORE.INTRA.DIHEDRAL.0>
4.74153

>  <SCORE.INTRA.POLAR>
0

>  <SCORE.INTRA.POLAR.0>
0

>  <SCORE.INTRA.REPUL>
0

>  <SCORE.INTRA.REPUL.0>
0

>  <SCORE.INTRA.SOLV>
3.81213

>  <SCORE.INTRA.SOLV.lig_0>
-60.4375

>  <SCORE.INTRA.VDW>
-1.50466

>  <SCORE.INTRA.VDW.0>
-1.83689

>  <SCORE.INTRA.norm>
0.010051

>  <SCORE.RESTR>
0

>  <SCORE.RESTR.CAVITY>
0

>  <SCORE.RESTR.norm>
0

>  <SCORE.SYSTEM>
0

>  <SCORE.SYSTEM.CONST>
0

>  <SCORE.SYSTEM.DIHEDRAL>
0

>  <SCORE.SYSTEM.SOLV>
0

>  <SCORE.SYSTEM.norm>
0

>  <SCORE.heavy>
46

>  <SCORE.norm>
-0.349779

>  <RMSD>
2.034

$$$$
lig.pdb
 OpenBabel11021811523D
libRbt.so/2013.1/901 2013/11/27
 46 52  0  0  0  0  0  0  0  0999 V2000
  158.9479   42.6619  146.7864 P   0  0  2  0  0  0  0  0  0  0  0  0
  159.9810   42.0052  147.6759 O   0  0  0  0  0  0  0  0  0  0  0  0
  157.7137   41.8561  146.4724 O   0  0  0  0  0  0  0  0  0  0  0  0
  159.5973   43.1516  145.3995 O   0  0  0  0  0  0  0  0  0  0  0  0
  161.0038   43.1430  145.1922 C   0  0  0  0  0  0  0  0  0  0  0  0
  161.3574   44.0032  143.9902 C   0  0  1  0  0  0  0  0  0  0  0  0
  161.6345   43.1389  142.8975 O   0  0  0  0  0  0  0  0  0  0  0  0
  160.2656   44.9536  143.5153 C   0  0  1  0  0  0  0  0  0  0  0  0
  160.5707   46.2771  143.9296 O   0  0  0  0  0  0  0  0  0  0  0  0
  160.3788   44.8953  142.0084 C   0  0  1  0  0  0  0  0  0  0  0  0
  161.2934   45.8962  141.5569 O   0  0  0  0  0  0  0  0  0  0  0  0
  161.0024   43.5651  141.7002 C   0  0  2  0  0  0  0  0  0  0  0  0
  159.9355   42.5953  141.3564 N   0  0  0  0  0  0  0  0  0  0  0  0
  159.3284   42.4896  140.1615 C   0  0  0  0  0  0  0  0  0  0  0  0
  158.3896   41.5133  140.1880 N   0  0  0  0  0  0  0  0  0  0  0  0
  158.3841   40.9739  141.4200 C   0  0  0  0  0  0  0  0  0  0  0  0
  157.6368   39.9005  142.1167 C   0  0  0  0  0  0  0  0  0  0  0  0
  156.7469   39.2547  141.5126 O   0  0  0  0  0  0  0  0  0  0  0  0
  157.9446   39.6533  143.4014 N   0  0  0  0  0  0  0  0  0  0  0  0
  158.8995   40.3503  144.0457 C   0  0  0  0  0  0  0  0  0  0  0  0
  159.1702   40.0549  145.3368 N   0  0  0  0  0  0  0  0  0  0  0  0
  159.6179   41.3411  143.4703 N   0  0  0  0  0  0  0  0  0  0  0  0
  159.4089   41.6926  142.1836 C   0  0  0  0  0  0  0  0  0  0  0  0
  159.5118   47.5049  143.8440 P   0  0  2  0  0  0  0  0  0  0  0  0
  158.8981   47.5349  142.4653 O   0  0  0  0  0  0  0  0  0  0  0  0
  160.2295   48.7183  144.4048 O   0  0  0  0  0  0  0  0  0  0  0  0
  158.3595   47.0408  144.8766 O   0  0  0  0  0  0  0  0  0  0  0  0
  158.5412   47.2218  146.2804 C   0  0  0  0  0  0  0  0  0  0  0  0
  157.6159   46.3418  147.1266 C   0  0  1  0  0  0  0  0  0  0  0  0
  156.2842   46.8567  147.0613 O   0  0  0  0  0  0  0  0  0  0  0  0
  157.5452   44.8778  146.6980 C   0  0  1  0  0  0  0  0  0  0  0  0
  158.4539   44.0555  147.4290 O   0  0  0  0  0  0  0  0  0  0  0  0
  156.1021   44.5217  147.0028 C   0  0  1  0  0  0  0  0  0  0  0  0
  155.9593   44.0947  148.3604 O   0  0  0  0  0  0  0  0  0  0  0  0
  155.3283   45.8144  146.8493 C   0  0  2  0  0  0  0  0  0  0  0  0
  154.8073   45.9190  145.4637 N   0  0  0  0  0  0  0  0  0  0  0  0
  155.4234   46.5374  144.4368 C   0  0  0  0  0  0  0  0  0  0  0  0
  154.7003   46.4522  143.2857 N   0  0  0  0  0  0  0  0  0  0  0  0
  153.5883   45.7550  143.5678 C   0  0  0  0  0  0  0  0  0  0  0  0
  152.3862   45.3074  142.8193 C   0  0  0  0  0  0  0  0  0  0  0  0
  152.2293   45.5438  141.6021 O   0  0  0  0  0  0  0  0  0  0  0  0
  151.4685   44.6088  143.4898 N   0  0  0  0  0  0  0  0  0  0  0  0
  151.5934   44.3237  144.7951 C   0  0  0  0  0  0  0  0  0  0  0  0
  150.6034   43.6269  145.3727 N   0  0  0  0  0  0  0  0  0  0  0  0
  152.6532   44.7035  145.5468 N   0  0  0  0  0  0  0  0  0  0  0  0
  153.6655   45.4101  145.0016 C   0  0  0  0  0  0  0  0  0  0  0  0
  1  3  2  6  0  0  0
  1 32  1  0  0  0  0
  1  2  1  0  0  0  0
  1  4  1  0  0  0  0
  4  5  1  0  0  0  0
  6  5  1  1  0  0  0
  7  6  1  0  0  0  0
  8  6  1  0  0  0  0
  8 10  1  0  0  0  0
  8  9  1  1  0  0  0
 10 11  1  1  0  0  0
 12 13  1  1  0  0  0
 12  7  1  0  0  0  0
 12 10  1  0  0  0  0
 14 13  1  0  0  0  0
 15 16  1  0  0  0  0
 15 14  2  0  0  0  0
 16 23  2  0  0  0  0
 17 16  1  0  0  0  0
 17 19  1  0  0  0  0
 18 17  2  0  0  0  0
 19 20  2  0  0  0  0
 20 22  1  0  0  0  0
 20 21  1  0  0  0  0
 23 13  1  0  0  0  0
 23 22  1  0  0  0  0
 24 25  2  6  0  0  0
 24  9  1  0  0  0  0
 24 26  1  0  0  0  0
 27 28  1  0  0  0  0
 27 24  1  0  0  0  0
 29 30  1  6  0  0  0
 29 28  1  0  0  0  0
 31 32  1  1  0  0  0
 31 29  1  0  0  0  0
 33 34  1  1  0  0  0
 33 35  1  0  0  0  0
 33 31  1  0  0  0  0
 35 36  1  6  0  0  0
 35 30  1  0  0  0  0
 36 37  1  0  0  0  0
 38 37  2  0  0  0  0
 39 38  1  0  0  0  0
 40 41  2  0  0  0  0
 40 39  1  0  0  0  0
 42 40  1  0  0  0  0
 43 42  2  0  0  0  0
 43 45  1  0  0  0  0
 44 43  1  0  0  0  0
 45 46  1  0  0  0  0
 46 39  2  0  0  0  0
 46 36  1  0  0  0  0
M  END
>  <CHROM.1>
-164.17762624,21.69042779,157.65636699,44.17959177,144.31451875,-0.40240871
0.09017976,0.43461706

>  <Name>
lig.pdb

>  <RI>
0

>  <Rbt.Current_Directory>
/home/itssahil/PROJECTS/Mol_Feturizer/New_Systems/rnas/4yb0

>  <Rbt.Executable>
rbdock ($Id: //depot/dev/client3/rdock/2013.1/src/exe/rbdock.cxx#4 $)

>  <Rbt.Library>
libRbt.so (2013.1, Build901 2013/11/27)

>  <Rbt.Parameter_File>
/export/apps/rDock/src/rDock_2013.1_src/data/scripts/dock_solv.prm

>  <Rbt.Receptor>
prm/pocket_docking_7.prm

>  <SCORE>
-13.2676

>  <SCORE.INTER>
-14.0923

>  <SCORE.INTER.CONST>
1

>  <SCORE.INTER.POLAR>
0

>  <SCORE.INTER.ROT>
2

>  <SCORE.INTER.SOLV>
25.6213

>  <SCORE.INTER.VDW>
-22.8687

>  <SCORE.INTER.norm>
-0.306355

>  <SCORE.INTRA>
0.824738

>  <SCORE.INTRA.DIHEDRAL>
0.146653

>  <SCORE.INTRA.DIHEDRAL.0>
4.74153

>  <SCORE.INTRA.POLAR>
0

>  <SCORE.INTRA.POLAR.0>
0

>  <SCORE.INTRA.REPUL>
0

>  <SCORE.INTRA.REPUL.0>
0

>  <SCORE.INTRA.SOLV>
3.99044

>  <SCORE.INTRA.SOLV.lig_0>
-60.4375

>  <SCORE.INTRA.VDW>
-1.24381

>  <SCORE.INTRA.VDW.0>
-1.83689

>  <SCORE.INTRA.norm>
0.0179291

>  <SCORE.RESTR>
0

>  <SCORE.RESTR.CAVITY>
0

>  <SCORE.RESTR.norm>
0

>  <SCORE.SYSTEM>
0

>  <SCORE.SYSTEM.CONST>
0

>  <SCORE.SYSTEM.DIHEDRAL>
0

>  <SCORE.SYSTEM.SOLV>
0

>  <SCORE.SYSTEM.norm>
0

>  <SCORE.heavy>
46

>  <SCORE.norm>
-0.288426

>  <RMSD>
2.055

$$$$
lig.pdb
 OpenBabel11021811523D
libRbt.so/2013.1/901 2013/11/27
 46 52  0  0  0  0  0  0  0  0999 V2000
  159.7411   46.1082  143.6319 P   0  0  2  0  0  0  0  0  0  0  0  0
  160.3612   47.4698  143.8582 O   0  0  0  0  0  0  0  0  0  0  0  0
  158.9068   45.9420  142.3880 O   0  0  0  0  0  0  0  0  0  0  0  0
  158.8594   45.6502  144.8960 O   0  0  0  0  0  0  0  0  0  0  0  0
  158.8837   46.3714  146.1208 C   0  0  0  0  0  0  0  0  0  0  0  0
  158.2927   45.5236  147.2352 C   0  0  1  0  0  0  0  0  0  0  0  0
  156.9772   45.9929  147.4941 O   0  0  0  0  0  0  0  0  0  0  0  0
  158.1626   44.0360  146.9338 C   0  0  1  0  0  0  0  0  0  0  0  0
  159.1890   43.3206  147.6055 O   0  0  0  0  0  0  0  0  0  0  0  0
  156.8399   43.6630  147.5649 C   0  0  1  0  0  0  0  0  0  0  0  0
  157.0517   43.2578  148.9188 O   0  0  0  0  0  0  0  0  0  0  0  0
  156.0406   44.9328  147.6106 C   0  0  2  0  0  0  0  0  0  0  0  0
  155.1282   44.9759  146.4434 N   0  0  0  0  0  0  0  0  0  0  0  0
  154.0084   44.2466  146.2970 C   0  0  0  0  0  0  0  0  0  0  0  0
  153.4161   44.5148  145.1085 N   0  0  0  0  0  0  0  0  0  0  0  0
  154.1619   45.4335  144.4693 C   0  0  0  0  0  0  0  0  0  0  0  0
  154.0995   46.1527  143.1751 C   0  0  0  0  0  0  0  0  0  0  0  0
  153.1592   45.9331  142.3741 O   0  0  0  0  0  0  0  0  0  0  0  0
  155.0767   47.0329  142.8982 N   0  0  0  0  0  0  0  0  0  0  0  0
  156.0846   47.2638  143.7606 C   0  0  0  0  0  0  0  0  0  0  0  0
  157.0377   48.1641  143.4312 N   0  0  0  0  0  0  0  0  0  0  0  0
  156.2018   46.6429  144.9562 N   0  0  0  0  0  0  0  0  0  0  0  0
  155.2885   45.7335  145.3585 C   0  0  0  0  0  0  0  0  0  0  0  0
  159.5328   41.7623  147.3062 P   0  0  2  0  0  0  0  0  0  0  0  0
  158.2552   40.9590  147.3331 O   0  0  0  0  0  0  0  0  0  0  0  0
  160.6964   41.4074  148.2128 O   0  0  0  0  0  0  0  0  0  0  0  0
  160.0433   41.8086  145.7743 O   0  0  0  0  0  0  0  0  0  0  0  0
  161.3775   42.2180  145.4766 C   0  0  0  0  0  0  0  0  0  0  0  0
  161.5645   42.6503  144.0190 C   0  0  1  0  0  0  0  0  0  0  0  0
  161.5513   41.4947  143.1780 O   0  0  0  0  0  0  0  0  0  0  0  0
  160.4946   43.5991  143.4831 C   0  0  1  0  0  0  0  0  0  0  0  0
  160.8806   44.9683  143.5948 O   0  0  0  0  0  0  0  0  0  0  0  0
  160.3788   43.1688  142.0327 C   0  0  1  0  0  0  0  0  0  0  0  0
  161.3397   43.8504  141.2216 O   0  0  0  0  0  0  0  0  0  0  0  0
  160.7362   41.6972  142.0205 C   0  0  2  0  0  0  0  0  0  0  0  0
  159.5014   40.8858  142.1583 N   0  0  0  0  0  0  0  0  0  0  0  0
  159.1808   40.1157  143.2169 C   0  0  0  0  0  0  0  0  0  0  0  0
  157.9750   39.5037  143.0527 N   0  0  0  0  0  0  0  0  0  0  0  0
  157.4946   39.8901  141.8601 C   0  0  0  0  0  0  0  0  0  0  0  0
  156.2777   39.6130  141.0551 C   0  0  0  0  0  0  0  0  0  0  0  0
  155.3626   38.8649  141.4613 O   0  0  0  0  0  0  0  0  0  0  0  0
  156.1730   40.2170  139.8703 N   0  0  0  0  0  0  0  0  0  0  0  0
  157.1246   41.0336  139.3924 C   0  0  0  0  0  0  0  0  0  0  0  0
  156.9222   41.5766  138.1827 N   0  0  0  0  0  0  0  0  0  0  0  0
  158.2640   41.3282  140.0612 N   0  0  0  0  0  0  0  0  0  0  0  0
  158.5046   40.7966  141.2781 C   0  0  0  0  0  0  0  0  0  0  0  0
  1  3  2  6  0  0  0
  1 32  1  0  0  0  0
  1  2  1  0  0  0  0
  1  4  1  0  0  0  0
  4  5  1  0  0  0  0
  6  5  1  6  0  0  0
  7  6  1  0  0  0  0
  8  6  1  0  0  0  0
  8 10  1  0  0  0  0
  8  9  1  1  0  0  0
 10 11  1  1  0  0  0
 12 13  1  6  0  0  0
 12  7  1  0  0  0  0
 12 10  1  0  0  0  0
 14 13  1  0  0  0  0
 15 16  1  0  0  0  0
 15 14  2  0  0  0  0
 16 23  2  0  0  0  0
 17 16  1  0  0  0  0
 17 19  1  0  0  0  0
 18 17  2  0  0  0  0
 19 20  2  0  0  0  0
 20 22  1  0  0  0  0
 20 21  1  0  0  0  0
 23 13  1  0  0  0  0
 23 22  1  0  0  0  0
 24 25  2  1  0  0  0
 24  9  1  0  0  0  0
 24 26  1  0  0  0  0
 27 28  1  0  0  0  0
 27 24  1  0  0  0  0
 29 30  1  6  0  0  0
 29 28  1  0  0  0  0
 31 32  1  6  0  0  0
 31 29  1  0  0  0  0
 33 34  1  6  0  0  0
 33 35  1  0  0  0  0
 33 31  1  0  0  0  0
 35 36  1  1  0  0  0
 35 30  1  0  0  0  0
 36 37  1  0  0  0  0
 38 37  2  0  0  0  0
 39 38  1  0  0  0  0
 40 41  2  0  0  0  0
 40 39  1  0  0  0  0
 42 40  1  0  0  0  0
 43 42  2  0  0  0  0
 43 45  1  0  0  0  0
 44 43  1  0  0  0  0
 45 46  1  0  0  0  0
 46 39  2  0  0  0  0
 46 36  1  0  0  0  0
M  END
>  <CHROM.1>
-170.54802438,1.81903711,158.03737574,43.55135553,144.20614740,-1.90915758
0.66095759,-2.14441646

>  <Name>
lig.pdb

>  <RI>
0

>  <Rbt.Current_Directory>
/home/itssahil/PROJECTS/Mol_Feturizer/New_Systems/rnas/4yb0

>  <Rbt.Executable>
rbdock ($Id: //depot/dev/client3/rdock/2013.1/src/exe/rbdock.cxx#4 $)

>  <Rbt.Library>
libRbt.so (2013.1, Build901 2013/11/27)

>  <Rbt.Parameter_File>
/export/apps/rDock/src/rDock_2013.1_src/data/scripts/dock_solv.prm

>  <Rbt.Receptor>
prm/pocket_docking_2.prm

>  <SCORE>
-44.7623

>  <SCORE.INTER>
-46.9626

>  <SCORE.INTER.CONST>
1

>  <SCORE.INTER.POLAR>
0

>  <SCORE.INTER.ROT>
2

>  <SCORE.INTER.SOLV>
27.7388

>  <SCORE.INTER.VDW>
-45.488

>  <SCORE.INTER.norm>
-1.02093

>  <SCORE.INTRA>
-0.0319374

>  <SCORE.INTRA.DIHEDRAL>
0.0851785

>  <SCORE.INTRA.DIHEDRAL.0>
4.74153

>  <SCORE.INTRA.POLAR>
0

>  <SCORE.INTRA.POLAR.0>
0

>  <SCORE.INTRA.REPUL>
0

>  <SCORE.INTRA.REPUL.0>
0

>  <SCORE.INTRA.SOLV>
3.12497

>  <SCORE.INTRA.SOLV.lig_0>
-60.4375

>  <SCORE.INTRA.VDW>
-1.63701

>  <SCORE.INTRA.VDW.0>
-1.83689

>  <SCORE.INTRA.norm>
-0.00069429

>  <SCORE.RESTR>
2.23223

>  <SCORE.RESTR.CAVITY>
2.23223

>  <SCORE.RESTR.norm>
0.0485268

>  <SCORE.SYSTEM>
0

>  <SCORE.SYSTEM.CONST>
0

>  <SCORE.SYSTEM.DIHEDRAL>
0

>  <SCORE.SYSTEM.SOLV>
0

>  <SCORE.SYSTEM.norm>
0

>  <SCORE.heavy>
46

>  <SCORE.norm>
-0.973094

>  <RMSD>
2.057

$$$$
lig.pdb
 OpenBabel11021811523D
libRbt.so/2013.1/901 2013/11/27
 46 52  0  0  0  0  0  0  0  0999 V2000
  159.7368   46.1279  143.6501 P   0  0  2  0  0  0  0  0  0  0  0  0
  160.3519   47.4917  143.8766 O   0  0  0  0  0  0  0  0  0  0  0  0
  158.9021   45.9591  142.4068 O   0  0  0  0  0  0  0  0  0  0  0  0
  158.8579   45.6657  144.9146 O   0  0  0  0  0  0  0  0  0  0  0  0
  158.8804   46.3863  146.1399 C   0  0  0  0  0  0  0  0  0  0  0  0
  158.2936   45.5355  147.2542 C   0  0  1  0  0  0  0  0  0  0  0  0
  156.9765   45.9996  147.5145 O   0  0  0  0  0  0  0  0  0  0  0  0
  158.1690   44.0476  146.9520 C   0  0  1  0  0  0  0  0  0  0  0  0
  159.1987   43.3358  147.6224 O   0  0  0  0  0  0  0  0  0  0  0  0
  156.8483   43.6691  147.5840 C   0  0  1  0  0  0  0  0  0  0  0  0
  157.0627   43.2639  148.9375 O   0  0  0  0  0  0  0  0  0  0  0  0
  156.0441   44.9358  147.6311 C   0  0  2  0  0  0  0  0  0  0  0  0
  155.1306   44.9761  146.4647 N   0  0  0  0  0  0  0  0  0  0  0  0
  154.0039   44.2557  146.3267 C   0  0  0  0  0  0  0  0  0  0  0  0
  153.4126   44.5179  145.1364 N   0  0  0  0  0  0  0  0  0  0  0  0
  154.1659   45.4236  144.4875 C   0  0  0  0  0  0  0  0  0  0  0  0
  154.1084   46.1308  143.1865 C   0  0  0  0  0  0  0  0  0  0  0  0
  153.1651   45.9122  142.3889 O   0  0  0  0  0  0  0  0  0  0  0  0
  155.0933   46.9994  142.8999 N   0  0  0  0  0  0  0  0  0  0  0  0
  156.1044   47.2293  143.7589 C   0  0  0  0  0  0  0  0  0  0  0  0
  157.0653   48.1175  143.4196 N   0  0  0  0  0  0  0  0  0  0  0  0
  156.2175   46.6187  144.9602 N   0  0  0  0  0  0  0  0  0  0  0  0
  155.2964   45.7217  145.3723 C   0  0  0  0  0  0  0  0  0  0  0  0
  159.5482   41.7790  147.3219 P   0  0  2  0  0  0  0  0  0  0  0  0
  158.2738   40.9707  147.3494 O   0  0  0  0  0  0  0  0  0  0  0  0
  160.7139   41.4281  148.2274 O   0  0  0  0  0  0  0  0  0  0  0  0
  160.0573   41.8281  145.7897 O   0  0  0  0  0  0  0  0  0  0  0  0
  161.3897   42.2429  145.4911 C   0  0  0  0  0  0  0  0  0  0  0  0
  161.5738   42.6767  144.0336 C   0  0  1  0  0  0  0  0  0  0  0  0
  161.5644   41.5216  143.1919 O   0  0  0  0  0  0  0  0  0  0  0  0
  160.4998   43.6217  143.4992 C   0  0  1  0  0  0  0  0  0  0  0  0
  160.8806   44.9923  143.6113 O   0  0  0  0  0  0  0  0  0  0  0  0
  160.3845   43.1918  142.0486 C   0  0  1  0  0  0  0  0  0  0  0  0
  161.3420   43.8776  141.2371 O   0  0  0  0  0  0  0  0  0  0  0  0
  160.7475   41.7216  142.0352 C   0  0  2  0  0  0  0  0  0  0  0  0
  159.5160   40.9054  142.1735 N   0  0  0  0  0  0  0  0  0  0  0  0
  159.1981   40.1353  143.2330 C   0  0  0  0  0  0  0  0  0  0  0  0
  157.9949   39.5182  143.0691 N   0  0  0  0  0  0  0  0  0  0  0  0
  157.5134   39.9012  141.8758 C   0  0  0  0  0  0  0  0  0  0  0  0
  156.2979   39.6182  141.0708 C   0  0  0  0  0  0  0  0  0  0  0  0
  155.3857   38.8669  141.4775 O   0  0  0  0  0  0  0  0  0  0  0  0
  156.1911   40.2204  139.8851 N   0  0  0  0  0  0  0  0  0  0  0  0
  157.1396   41.0402  139.4066 C   0  0  0  0  0  0  0  0  0  0  0  0
  156.9355   41.5810  138.1962 N   0  0  0  0  0  0  0  0  0  0  0  0
  158.2776   41.3402  140.0754 N   0  0  0  0  0  0  0  0  0  0  0  0
  158.5199   40.8111  141.2931 C   0  0  0  0  0  0  0  0  0  0  0  0
  1  3  2  6  0  0  0
  1 32  1  0  0  0  0
  1  2  1  0  0  0  0
  1  4  1  0  0  0  0
  4  5  1  0  0  0  0
  6  5  1  6  0  0  0
  7  6  1  0  0  0  0
  8  6  1  0  0  0  0
  8 10  1  0  0  0  0
  8  9  1  1  0  0  0
 10 11  1  1  0  0  0
 12 13  1  6  0  0  0
 12  7  1  0  0  0  0
 12 10  1  0  0  0  0
 14 13  1  0  0  0  0
 15 16  1  0  0  0  0
 15 14  2  0  0  0  0
 16 23  2  0  0  0  0
 17 16  1  0  0  0  0
 17 19  1  0  0  0  0
 18 17  2  0  0  0  0
 19 20  2  0  0  0  0
 20 22  1  0  0  0  0
 20 21  1  0  0  0  0
 23 13  1  0  0  0  0
 23 22  1  0  0  0  0
 24 25  2  1  0  0  0
 24  9  1  0  0  0  0
 24 26  1  0  0  0  0
 27 28  1  0  0  0  0
 27 24  1  0  0  0  0
 29 30  1  6  0  0  0
 29 28  1  0  0  0  0
 31 32  1  6  0  0  0
 31 29  1  0  0  0  0
 33 34  1  6  0  0  0
 33 35  1  0  0  0  0
 33 31  1  0  0  0  0
 35 36  1  1  0  0  0
 35 30  1  0  0  0  0
 36 37  1  0  0  0  0
 38 37  2  0  0  0  0
 39 38  1  0  0  0  0
 40 41  2  0  0  0  0
 40 39  1  0  0  0  0
 42 40  1  0  0  0  0
 43 42  2  0  0  0  0
 43 45  1  0  0  0  0
 44 43  1  0  0  0  0
 45 46  1  0  0  0  0
 46 39  2  0  0  0  0
 46 36  1  0  0  0  0
M  END
>  <CHROM.1>
-169.59887108,1.94290709,158.04638941,43.55971663,144.22165737,-1.90185510
0.65538193,-2.14133370

>  <Name>
lig.pdb

>  <RI>
0

>  <Rbt.Current_Directory>
/home/itssahil/PROJECTS/Mol_Feturizer/New_Systems/rnas/4yb0

>  <Rbt.Executable>
rbdock ($Id: //depot/dev/client3/rdock/2013.1/src/exe/rbdock.cxx#4 $)

>  <Rbt.Library>
libRbt.so (2013.1, Build901 2013/11/27)

>  <Rbt.Parameter_File>
/export/apps/rDock/src/rDock_2013.1_src/data/scripts/dock_solv.prm

>  <Rbt.Receptor>
prm/pocket_docking_2.prm

>  <SCORE>
-44.7631

>  <SCORE.INTER>
-47.0241

>  <SCORE.INTER.CONST>
1

>  <SCORE.INTER.POLAR>
0

>  <SCORE.INTER.ROT>
2

>  <SCORE.INTER.SOLV>
27.4995

>  <SCORE.INTER.VDW>
-45.4492

>  <SCORE.INTER.norm>
-1.02226

>  <SCORE.INTRA>
0.0212064

>  <SCORE.INTRA.DIHEDRAL>
0.0875202

>  <SCORE.INTRA.DIHEDRAL.0>
4.74153

>  <SCORE.INTRA.POLAR>
0

>  <SCORE.INTRA.POLAR.0>
0

>  <SCORE.INTRA.REPUL>
0

>  <SCORE.INTRA.REPUL.0>
0

>  <SCORE.INTRA.SOLV>
3.25572

>  <SCORE.INTRA.SOLV.lig_0>
-60.4375

>  <SCORE.INTRA.VDW>
-1.65041

>  <SCORE.INTRA.VDW.0>
-1.83689

>  <SCORE.INTRA.norm>
0.000461008

>  <SCORE.RESTR>
2.23971

>  <SCORE.RESTR.CAVITY>
2.23971

>  <SCORE.RESTR.norm>
0.0486894

>  <SCORE.SYSTEM>
0

>  <SCORE.SYSTEM.CONST>
0

>  <SCORE.SYSTEM.DIHEDRAL>
0

>  <SCORE.SYSTEM.SOLV>
0

>  <SCORE.SYSTEM.norm>
0

>  <SCORE.heavy>
46

>  <SCORE.norm>
-0.973112

>  <RMSD>
2.059

$$$$
lig.pdb
 OpenBabel11021811523D
libRbt.so/2013.1/901 2013/11/27
 46 52  0  0  0  0  0  0  0  0999 V2000
  159.7867   46.2121  143.6393 P   0  0  2  0  0  0  0  0  0  0  0  0
  160.3873   47.5853  143.8470 O   0  0  0  0  0  0  0  0  0  0  0  0
  158.9517   46.0182  142.3998 O   0  0  0  0  0  0  0  0  0  0  0  0
  158.9149   45.7570  144.9113 O   0  0  0  0  0  0  0  0  0  0  0  0
  158.9317   46.4938  146.1271 C   0  0  0  0  0  0  0  0  0  0  0  0
  158.3560   45.6514  147.2535 C   0  0  1  0  0  0  0  0  0  0  0  0
  157.0344   46.1046  147.5100 O   0  0  0  0  0  0  0  0  0  0  0  0
  158.2469   44.1584  146.9709 C   0  0  1  0  0  0  0  0  0  0  0  0
  159.2854   43.4665  147.6487 O   0  0  0  0  0  0  0  0  0  0  0  0
  156.9314   43.7740  147.6102 C   0  0  1  0  0  0  0  0  0  0  0  0
  157.1525   43.3889  148.9685 O   0  0  0  0  0  0  0  0  0  0  0  0
  156.1137   45.0325  147.6423 C   0  0  2  0  0  0  0  0  0  0  0  0
  155.1979   45.0477  146.4770 N   0  0  0  0  0  0  0  0  0  0  0  0
  154.1931   44.1816  146.2589 C   0  0  0  0  0  0  0  0  0  0  0  0
  153.5617   44.4663  145.0947 N   0  0  0  0  0  0  0  0  0  0  0  0
  154.1647   45.5351  144.5444 C   0  0  0  0  0  0  0  0  0  0  0  0
  153.9927   46.3496  143.3184 C   0  0  0  0  0  0  0  0  0  0  0  0
  153.0889   46.0695  142.4945 O   0  0  0  0  0  0  0  0  0  0  0  0
  154.8323   47.3815  143.1271 N   0  0  0  0  0  0  0  0  0  0  0  0
  155.8017   47.6770  144.0136 C   0  0  0  0  0  0  0  0  0  0  0  0
  156.6143   48.7299  143.7717 N   0  0  0  0  0  0  0  0  0  0  0  0
  156.0134   46.9760  145.1505 N   0  0  0  0  0  0  0  0  0  0  0  0
  155.2419   45.9134  145.4644 C   0  0  0  0  0  0  0  0  0  0  0  0
  159.6511   41.9098  147.3679 P   0  0  2  0  0  0  0  0  0  0  0  0
  158.3855   41.0883  147.4082 O   0  0  0  0  0  0  0  0  0  0  0  0
  160.8221   41.5833  148.2757 O   0  0  0  0  0  0  0  0  0  0  0  0
  160.1571   41.9444  145.8342 O   0  0  0  0  0  0  0  0  0  0  0  0
  161.4844   42.3695  145.5279 C   0  0  0  0  0  0  0  0  0  0  0  0
  161.6614   42.7863  144.0644 C   0  0  1  0  0  0  0  0  0  0  0  0
  161.6630   41.6202  143.2379 O   0  0  0  0  0  0  0  0  0  0  0  0
  160.5764   43.7126  143.5197 C   0  0  1  0  0  0  0  0  0  0  0  0
  160.9426   45.0885  143.6133 O   0  0  0  0  0  0  0  0  0  0  0  0
  160.4633   43.2626  142.0751 C   0  0  1  0  0  0  0  0  0  0  0  0
  161.4120   43.9480  141.2530 O   0  0  0  0  0  0  0  0  0  0  0  0
  160.8421   41.7963  142.0802 C   0  0  2  0  0  0  0  0  0  0  0  0
  159.6197   40.9687  142.2314 N   0  0  0  0  0  0  0  0  0  0  0  0
  159.3248   40.1880  143.2897 C   0  0  0  0  0  0  0  0  0  0  0  0
  158.1243   39.5622  143.1398 N   0  0  0  0  0  0  0  0  0  0  0  0
  157.6211   39.9501  141.9572 C   0  0  0  0  0  0  0  0  0  0  0  0
  156.3955   39.6630  141.1689 C   0  0  0  0  0  0  0  0  0  0  0  0
  155.4960   38.9010  141.5841 O   0  0  0  0  0  0  0  0  0  0  0  0
  156.2652   40.2732  139.9898 N   0  0  0  0  0  0  0  0  0  0  0  0
  157.1994   41.1046  139.5029 C   0  0  0  0  0  0  0  0  0  0  0  0
  156.9718   41.6527  138.3000 N   0  0  0  0  0  0  0  0  0  0  0  0
  158.3451   41.4091  140.1562 N   0  0  0  0  0  0  0  0  0  0  0  0
  158.6108   40.8728  141.3658 C   0  0  0  0  0  0  0  0  0  0  0  0
  1  3  2  6  0  0  0
  1 32  1  0  0  0  0
  1  2  1  0  0  0  0
  1  4  1  0  0  0  0
  4  5  1  0  0  0  0
  6  5  1  6  0  0  0
  7  6  1  0  0  0  0
  8  6  1  0  0  0  0
  8 10  1  0  0  0  0
  8  9  1  1  0  0  0
 10 11  1  1  0  0  0
 12 13  1  6  0  0  0
 12  7  1  0  0  0  0
 12 10  1  0  0  0  0
 14 13  1  0  0  0  0
 15 16  1  0  0  0  0
 15 14  2  0  0  0  0
 16 23  2  0  0  0  0
 17 16  1  0  0  0  0
 17 19  1  0  0  0  0
 18 17  2  0  0  0  0
 19 20  2  0  0  0  0
 20 22  1  0  0  0  0
 20 21  1  0  0  0  0
 23 13  1  0  0  0  0
 23 22  1  0  0  0  0
 24 25  2  1  0  0  0
 24  9  1  0  0  0  0
 24 26  1  0  0  0  0
 27 28  1  0  0  0  0
 27 24  1  0  0  0  0
 29 30  1  6  0  0  0
 29 28  1  0  0  0  0
 31 32  1  6  0  0  0
 31 29  1  0  0  0  0
 33 34  1  6  0  0  0
 33 35  1  0  0  0  0
 33 31  1  0  0  0  0
 35 36  1  1  0  0  0
 35 30  1  0  0  0  0
 36 37  1  0  0  0  0
 38 37  2  0  0  0  0
 39 38  1  0  0  0  0
 40 41  2  0  0  0  0
 40 39  1  0  0  0  0
 42 40  1  0  0  0  0
 43 42  2  0  0  0  0
 43 45  1  0  0  0  0
 44 43  1  0  0  0  0
 45 46  1  0  0  0  0
 46 39  2  0  0  0  0
 46 36  1  0  0  0  0
M  END
>  <CHROM.1>
-179.95013640,0.50976788,158.08903325,43.67828223,144.27676640,-2.00665627
0.65501719,-2.16499061

>  <Name>
lig.pdb

>  <RI>
0

>  <Rbt.Current_Directory>
/home/itssahil/PROJECTS/Mol_Feturizer/New_Systems/rnas/4yb0

>  <Rbt.Executable>
rbdock ($Id: //depot/dev/client3/rdock/2013.1/src/exe/rbdock.cxx#4 $)

>  <Rbt.Library>
libRbt.so (2013.1, Build901 2013/11/27)

>  <Rbt.Parameter_File>
/export/apps/rDock/src/rDock_2013.1_src/data/scripts/dock_solv.prm

>  <Rbt.Receptor>
prm/pocket_docking_3.prm

>  <SCORE>
-47.3155

>  <SCORE.INTER>
-47.2649

>  <SCORE.INTER.CONST>
1

>  <SCORE.INTER.POLAR>
0

>  <SCORE.INTER.ROT>
2

>  <SCORE.INTER.SOLV>
27.3208

>  <SCORE.INTER.VDW>
-45.5502

>  <SCORE.INTER.norm>
-1.0275

>  <SCORE.INTRA>
-0.264004

>  <SCORE.INTRA.DIHEDRAL>
0.0595412

>  <SCORE.INTRA.DIHEDRAL.0>
4.74153

>  <SCORE.INTRA.POLAR>
0

>  <SCORE.INTRA.POLAR.0>
0

>  <SCORE.INTRA.REPUL>
0

>  <SCORE.INTRA.REPUL.0>
0

>  <SCORE.INTRA.SOLV>
1.72442

>  <SCORE.INTRA.SOLV.lig_0>
-60.4375

>  <SCORE.INTRA.VDW>
-1.15598

>  <SCORE.INTRA.VDW.0>
-1.83689

>  <SCORE.INTRA.norm>
-0.00573922

>  <SCORE.RESTR>
0.213415

>  <SCORE.RESTR.CAVITY>
0.213415

>  <SCORE.RESTR.norm>
0.00463946

>  <SCORE.SYSTEM>
0

>  <SCORE.SYSTEM.CONST>
0

>  <SCORE.SYSTEM.DIHEDRAL>
0

>  <SCORE.SYSTEM.SOLV>
0

>  <SCORE.SYSTEM.norm>
0

>  <SCORE.heavy>
46

>  <SCORE.norm>
-1.0286

>  <RMSD>
2.060

$$$$
lig.pdb
 OpenBabel11021811523D
libRbt.so/2013.1/901 2013/11/27
 46 52  0  0  0  0  0  0  0  0999 V2000
  159.7441   46.1051  143.6398 P   0  0  2  0  0  0  0  0  0  0  0  0
  160.3673   47.4652  143.8668 O   0  0  0  0  0  0  0  0  0  0  0  0
  158.9075   45.9421  142.3969 O   0  0  0  0  0  0  0  0  0  0  0  0
  158.8632   45.6474  144.9046 O   0  0  0  0  0  0  0  0  0  0  0  0
  158.8907   46.3671  146.1303 C   0  0  0  0  0  0  0  0  0  0  0  0
  158.2996   45.5191  147.2445 C   0  0  1  0  0  0  0  0  0  0  0  0
  156.9854   45.9908  147.5058 O   0  0  0  0  0  0  0  0  0  0  0  0
  158.1660   44.0321  146.9414 C   0  0  1  0  0  0  0  0  0  0  0  0
  159.1919   43.3139  147.6108 O   0  0  0  0  0  0  0  0  0  0  0  0
  156.8434   43.6611  147.5741 C   0  0  1  0  0  0  0  0  0  0  0  0
  157.0563   43.2538  148.9271 O   0  0  0  0  0  0  0  0  0  0  0  0
  156.0468   44.9325  147.6224 C   0  0  2  0  0  0  0  0  0  0  0  0
  155.1328   44.9789  146.4565 N   0  0  0  0  0  0  0  0  0  0  0  0
  154.0040   44.2623  146.3170 C   0  0  0  0  0  0  0  0  0  0  0  0
  153.4128   44.5297  145.1278 N   0  0  0  0  0  0  0  0  0  0  0  0
  154.1685   45.4350  144.4812 C   0  0  0  0  0  0  0  0  0  0  0  0
  154.1125   46.1462  143.1823 C   0  0  0  0  0  0  0  0  0  0  0  0
  153.1681   45.9327  142.3845 O   0  0  0  0  0  0  0  0  0  0  0  0
  155.0998   47.0126  142.8977 N   0  0  0  0  0  0  0  0  0  0  0  0
  156.1120   47.2370  143.7568 C   0  0  0  0  0  0  0  0  0  0  0  0
  157.0753   48.1234  143.4197 N   0  0  0  0  0  0  0  0  0  0  0  0
  156.2239   46.6227  144.9563 N   0  0  0  0  0  0  0  0  0  0  0  0
  155.3003   45.7272  145.3663 C   0  0  0  0  0  0  0  0  0  0  0  0
  159.5320   41.7552  147.3091 P   0  0  2  0  0  0  0  0  0  0  0  0
  158.2528   40.9545  147.3369 O   0  0  0  0  0  0  0  0  0  0  0  0
  160.6962   41.3968  148.2137 O   0  0  0  0  0  0  0  0  0  0  0  0
  160.0404   41.8023  145.7766 O   0  0  0  0  0  0  0  0  0  0  0  0
  161.3751   42.2093  145.4775 C   0  0  0  0  0  0  0  0  0  0  0  0
  161.5608   42.6430  144.0201 C   0  0  1  0  0  0  0  0  0  0  0  0
  161.5441   41.4885  143.1777 O   0  0  0  0  0  0  0  0  0  0  0  0
  160.4921   43.5946  143.4869 C   0  0  1  0  0  0  0  0  0  0  0  0
  160.8811   44.9629  143.5997 O   0  0  0  0  0  0  0  0  0  0  0  0
  160.3734   43.1663  142.0362 C   0  0  1  0  0  0  0  0  0  0  0  0
  161.3345   43.8469  141.2245 O   0  0  0  0  0  0  0  0  0  0  0  0
  160.7277   41.6940  142.0216 C   0  0  2  0  0  0  0  0  0  0  0  0
  159.4914   40.8850  142.1602 N   0  0  0  0  0  0  0  0  0  0  0  0
  159.1694   40.1166  143.2197 C   0  0  0  0  0  0  0  0  0  0  0  0
  157.9625   39.5066  143.0560 N   0  0  0  0  0  0  0  0  0  0  0  0
  157.4829   39.8926  141.8630 C   0  0  0  0  0  0  0  0  0  0  0  0
  156.2655   39.6169  141.0582 C   0  0  0  0  0  0  0  0  0  0  0  0
  155.3490   38.8708  141.4652 O   0  0  0  0  0  0  0  0  0  0  0  0
  156.1619   40.2198  139.8727 N   0  0  0  0  0  0  0  0  0  0  0  0
  157.1151   41.0341  139.3941 C   0  0  0  0  0  0  0  0  0  0  0  0
  156.9137   41.5762  138.1837 N   0  0  0  0  0  0  0  0  0  0  0  0
  158.2550   41.3274  140.0626 N   0  0  0  0  0  0  0  0  0  0  0  0
  158.4945   40.7966  141.2800 C   0  0  0  0  0  0  0  0  0  0  0  0
  1  3  2  6  0  0  0
  1 32  1  0  0  0  0
  1  2  1  0  0  0  0
  1  4  1  0  0  0  0
  4  5  1  0  0  0  0
  6  5  1  6  0  0  0
  7  6  1  0  0  0  0
  8  6  1  0  0  0  0
  8 10  1  0  0  0  0
  8  9  1  1  0  0  0
 10 11  1  1  0  0  0
 12 13  1  6  0  0  0
 12  7  1  0  0  0  0
 12 10  1  0  0  0  0
 14 13  1  0  0  0  0
 15 16  1  0  0  0  0
 15 14  2  0  0  0  0
 16 23  2  0  0  0  0
 17 16  1  0  0  0  0
 17 19  1  0  0  0  0
 18 17  2  0  0  0  0
 19 20  2  0  0  0  0
 20 22  1  0  0  0  0
 20 21  1  0  0  0  0
 23 13  1  0  0  0  0
 23 22  1  0  0  0  0
 24 25  2  1  0  0  0
 24  9  1  0  0  0  0
 24 26  1  0  0  0  0
 27 28  1  0  0  0  0
 27 24  1  0  0  0  0
 29 30  1  6  0  0  0
 29 28  1  0  0  0  0
 31 32  1  6  0  0  0
 31 29  1  0  0  0  0
 33 34  1  6  0  0  0
 33 35  1  0  0  0  0
 33 31  1  0  0  0  0
 35 36  1  1  0  0  0
 35 30  1  0  0  0  0
 36 37  1  0  0  0  0
 38 37  2  0  0  0  0
 39 38  1  0  0  0  0
 40 41  2  0  0  0  0
 40 39  1  0  0  0  0
 42 40  1  0  0  0  0
 43 42  2  0  0  0  0
 43 45  1  0  0  0  0
 44 43  1  0  0  0  0
 45 46  1  0  0  0  0
 46 39  2  0  0  0  0
 46 36  1  0  0  0  0
M  END
>  <CHROM.1>
-169.81189477,1.97545912,158.03830898,43.54742854,144.21129546,-1.89895887
0.66048483,-2.14397647

>  <Name>
lig.pdb

>  <RI>
0

>  <Rbt.Current_Directory>
/home/itssahil/PROJECTS/Mol_Feturizer/New_Systems/rnas/4yb0

>  <Rbt.Executable>
rbdock ($Id: //depot/dev/client3/rdock/2013.1/src/exe/rbdock.cxx#4 $)

>  <Rbt.Library>
libRbt.so (2013.1, Build901 2013/11/27)

>  <Rbt.Parameter_File>
/export/apps/rDock/src/rDock_2013.1_src/data/scripts/dock_solv.prm

>  <Rbt.Receptor>
prm/pocket_docking_2.prm

>  <SCORE>
-44.8144

>  <SCORE.INTER>
-47.0594

>  <SCORE.INTER.CONST>
1

>  <SCORE.INTER.POLAR>
0

>  <SCORE.INTER.ROT>
2

>  <SCORE.INTER.SOLV>
27.6672

>  <SCORE.INTER.VDW>
-45.5287

>  <SCORE.INTER.norm>
-1.02303

>  <SCORE.INTRA>
0.00797007

>  <SCORE.INTRA.DIHEDRAL>
0.0871891

>  <SCORE.INTRA.DIHEDRAL.0>
4.74153

>  <SCORE.INTRA.POLAR>
0

>  <SCORE.INTRA.POLAR.0>
0

>  <SCORE.INTRA.REPUL>
0

>  <SCORE.INTRA.REPUL.0>
0

>  <SCORE.INTRA.SOLV>
3.22684

>  <SCORE.INTRA.SOLV.lig_0>
-60.4375

>  <SCORE.INTRA.VDW>
-1.64904

>  <SCORE.INTRA.VDW.0>
-1.83689

>  <SCORE.INTRA.norm>
0.000173262

>  <SCORE.RESTR>
2.23707

>  <SCORE.RESTR.CAVITY>
2.23707

>  <SCORE.RESTR.norm>
0.0486321

>  <SCORE.SYSTEM>
0

>  <SCORE.SYSTEM.CONST>
0

>  <SCORE.SYSTEM.DIHEDRAL>
0

>  <SCORE.SYSTEM.SOLV>
0

>  <SCORE.SYSTEM.norm>
0

>  <SCORE.heavy>
46

>  <SCORE.norm>
-0.974226

>  <RMSD>
2.061

$$$$
lig.pdb
 OpenBabel11021811523D
libRbt.so/2013.1/901 2013/11/27
 46 52  0  0  0  0  0  0  0  0999 V2000
  159.7431   46.1111  143.6285 P   0  0  2  0  0  0  0  0  0  0  0  0
  160.3631   47.4727  143.8550 O   0  0  0  0  0  0  0  0  0  0  0  0
  158.9022   45.9473  142.3887 O   0  0  0  0  0  0  0  0  0  0  0  0
  158.8687   45.6489  144.8961 O   0  0  0  0  0  0  0  0  0  0  0  0
  158.8987   46.3669  146.1227 C   0  0  0  0  0  0  0  0  0  0  0  0
  158.3146   45.5156  147.2379 C   0  0  1  0  0  0  0  0  0  0  0  0
  157.0001   45.9829  147.5051 O   0  0  0  0  0  0  0  0  0  0  0  0
  158.1843   44.0286  146.9333 C   0  0  1  0  0  0  0  0  0  0  0  0
  159.2151   43.3125  147.5976 O   0  0  0  0  0  0  0  0  0  0  0  0
  156.8654   43.6527  147.5706 C   0  0  1  0  0  0  0  0  0  0  0  0
  157.0849   43.2441  148.9222 O   0  0  0  0  0  0  0  0  0  0  0  0
  156.0651   44.9215  147.6239 C   0  0  2  0  0  0  0  0  0  0  0  0
  155.1465   44.9668  146.4616 N   0  0  0  0  0  0  0  0  0  0  0  0
  154.0163   44.2510  146.3280 C   0  0  0  0  0  0  0  0  0  0  0  0
  153.4206   44.5170  145.1408 N   0  0  0  0  0  0  0  0  0  0  0  0
  154.1745   45.4204  144.4895 C   0  0  0  0  0  0  0  0  0  0  0  0
  154.1138   46.1294  143.1896 C   0  0  0  0  0  0  0  0  0  0  0  0
  153.1660   45.9155  142.3960 O   0  0  0  0  0  0  0  0  0  0  0  0
  155.1008   46.9944  142.8995 N   0  0  0  0  0  0  0  0  0  0  0  0
  156.1167   47.2193  143.7541 C   0  0  0  0  0  0  0  0  0  0  0  0
  157.0795   48.1042  143.4115 N   0  0  0  0  0  0  0  0  0  0  0  0
  156.2329   46.6070  144.9542 N   0  0  0  0  0  0  0  0  0  0  0  0
  155.3102   45.7131  145.3695 C   0  0  0  0  0  0  0  0  0  0  0  0
  159.5588   41.7554  147.2924 P   0  0  2  0  0  0  0  0  0  0  0  0
  158.2822   40.9507  147.3240 O   0  0  0  0  0  0  0  0  0  0  0  0
  160.7276   41.3993  148.1918 O   0  0  0  0  0  0  0  0  0  0  0  0
  160.0610   41.8062  145.7579 O   0  0  0  0  0  0  0  0  0  0  0  0
  161.3932   42.2177  145.4542 C   0  0  0  0  0  0  0  0  0  0  0  0
  161.5719   42.6540  143.9966 C   0  0  1  0  0  0  0  0  0  0  0  0
  161.5554   41.5007  143.1527 O   0  0  0  0  0  0  0  0  0  0  0  0
  160.4982   43.6031  143.4690 C   0  0  1  0  0  0  0  0  0  0  0  0
  160.8835   44.9724  143.5823 O   0  0  0  0  0  0  0  0  0  0  0  0
  160.3751   43.1766  142.0182 C   0  0  1  0  0  0  0  0  0  0  0  0
  161.3309   43.8613  141.2037 O   0  0  0  0  0  0  0  0  0  0  0  0
  160.7339   41.7053  142.0001 C   0  0  2  0  0  0  0  0  0  0  0  0
  159.5006   40.8923  142.1424 N   0  0  0  0  0  0  0  0  0  0  0  0
  159.1841   40.1231  143.2029 C   0  0  0  0  0  0  0  0  0  0  0  0
  157.9788   39.5092  143.0428 N   0  0  0  0  0  0  0  0  0  0  0  0
  157.4945   39.8934  141.8511 C   0  0  0  0  0  0  0  0  0  0  0  0
  156.2757   39.6136  141.0499 C   0  0  0  0  0  0  0  0  0  0  0  0
  155.3628   38.8647  141.4596 O   0  0  0  0  0  0  0  0  0  0  0  0
  156.1667   40.2159  139.8646 N   0  0  0  0  0  0  0  0  0  0  0  0
  157.1159   41.0333  139.3830 C   0  0  0  0  0  0  0  0  0  0  0  0
  156.9093   41.5745  138.1732 N   0  0  0  0  0  0  0  0  0  0  0  0
  158.2568   41.3303  140.0482 N   0  0  0  0  0  0  0  0  0  0  0  0
  158.5015   40.8006  141.2651 C   0  0  0  0  0  0  0  0  0  0  0  0
  1  3  2  6  0  0  0
  1 32  1  0  0  0  0
  1  2  1  0  0  0  0
  1  4  1  0  0  0  0
  4  5  1  0  0  0  0
  6  5  1  6  0  0  0
  7  6  1  0  0  0  0
  8  6  1  0  0  0  0
  8 10  1  0  0  0  0
  8  9  1  1  0  0  0
 10 11  1  1  0  0  0
 12 13  1  6  0  0  0
 12  7  1  0  0  0  0
 12 10  1  0  0  0  0
 14 13  1  0  0  0  0
 15 16  1  0  0  0  0
 15 14  2  0  0  0  0
 16 23  2  0  0  0  0
 17 16  1  0  0  0  0
 17 19  1  0  0  0  0
 18 17  2  0  0  0  0
 19 20  2  0  0  0  0
 20 22  1  0  0  0  0
 20 21  1  0  0  0  0
 23 13  1  0  0  0  0
 23 22  1  0  0  0  0
 24 25  2  1  0  0  0
 24  9  1  0  0  0  0
 24 26  1  0  0  0  0
 27 28  1  0  0  0  0
 27 24  1  0  0  0  0
 29 30  1  6  0  0  0
 29 28  1  0  0  0  0
 31 32  1  6  0  0  0
 31 29  1  0  0  0  0
 33 34  1  6  0  0  0
 33 35  1  0  0  0  0
 33 31  1  0  0  0  0
 35 36  1  1  0  0  0
 35 30  1  0  0  0  0
 36 37  1  0  0  0  0
 38 37  2  0  0  0  0
 39 38  1  0  0  0  0
 40 41  2  0  0  0  0
 40 39  1  0  0  0  0
 42 40  1  0  0  0  0
 43 42  2  0  0  0  0
 43 45  1  0  0  0  0
 44 43  1  0  0  0  0
 45 46  1  0  0  0  0
 46 39  2  0  0  0  0
 46 36  1  0  0  0  0
M  END
>  <CHROM.1>
-169.52037217,2.08657410,158.04853986,43.54575896,144.20202735,-1.89384674
0.65520500,-2.14345445

>  <Name>
lig.pdb

>  <RI>
0

>  <Rbt.Current_Directory>
/home/itssahil/PROJECTS/Mol_Feturizer/New_Systems/rnas/4yb0

>  <Rbt.Executable>
rbdock ($Id: //depot/dev/client3/rdock/2013.1/src/exe/rbdock.cxx#4 $)

>  <Rbt.Library>
libRbt.so (2013.1, Build901 2013/11/27)

>  <Rbt.Parameter_File>
/export/apps/rDock/src/rDock_2013.1_src/data/scripts/dock_solv.prm

>  <Rbt.Receptor>
prm/pocket_docking_2.prm

>  <SCORE>
-44.8124

>  <SCORE.INTER>
-47.0799

>  <SCORE.INTER.CONST>
1

>  <SCORE.INTER.POLAR>
0

>  <SCORE.INTER.ROT>
2

>  <SCORE.INTER.SOLV>
27.7079

>  <SCORE.INTER.VDW>
-45.5559

>  <SCORE.INTER.norm>
-1.02348

>  <SCORE.INTRA>
0.0260805

>  <SCORE.INTRA.DIHEDRAL>
0.0881298

>  <SCORE.INTRA.DIHEDRAL.0>
4.74153

>  <SCORE.INTRA.POLAR>
0

>  <SCORE.INTRA.POLAR.0>
0

>  <SCORE.INTRA.REPUL>
0

>  <SCORE.INTRA.REPUL.0>
0

>  <SCORE.INTRA.SOLV>
3.26693

>  <SCORE.INTRA.SOLV.lig_0>
-60.4375

>  <SCORE.INTRA.VDW>
-1.65145

>  <SCORE.INTRA.VDW.0>
-1.83689

>  <SCORE.INTRA.norm>
0.000566968

>  <SCORE.RESTR>
2.24138

>  <SCORE.RESTR.CAVITY>
2.24138

>  <SCORE.RESTR.norm>
0.0487257

>  <SCORE.SYSTEM>
0

>  <SCORE.SYSTEM.CONST>
0

>  <SCORE.SYSTEM.DIHEDRAL>
0

>  <SCORE.SYSTEM.SOLV>
0

>  <SCORE.SYSTEM.norm>
0

>  <SCORE.heavy>
46

>  <SCORE.norm>
-0.974183

>  <RMSD>
2.064

$$$$
lig.pdb
 OpenBabel11021811523D
libRbt.so/2013.1/901 2013/11/27
 46 52  0  0  0  0  0  0  0  0999 V2000
  159.7538   46.0959  143.6241 P   0  0  2  0  0  0  0  0  0  0  0  0
  160.3782   47.4555  143.8505 O   0  0  0  0  0  0  0  0  0  0  0  0
  158.9112   45.9352  142.3850 O   0  0  0  0  0  0  0  0  0  0  0  0
  158.8792   45.6358  144.8923 O   0  0  0  0  0  0  0  0  0  0  0  0
  158.9127   46.3532  146.1192 C   0  0  0  0  0  0  0  0  0  0  0  0
  158.3271   45.5031  147.2347 C   0  0  1  0  0  0  0  0  0  0  0  0
  157.0143   45.9744  147.5034 O   0  0  0  0  0  0  0  0  0  0  0  0
  158.1920   44.0167  146.9295 C   0  0  1  0  0  0  0  0  0  0  0  0
  159.2212   43.2972  147.5925 O   0  0  0  0  0  0  0  0  0  0  0  0
  156.8726   43.6446  147.5680 C   0  0  1  0  0  0  0  0  0  0  0  0
  157.0921   43.2347  148.9192 O   0  0  0  0  0  0  0  0  0  0  0  0
  156.0762   44.9159  147.6226 C   0  0  2  0  0  0  0  0  0  0  0  0
  155.1565   44.9645  146.4613 N   0  0  0  0  0  0  0  0  0  0  0  0
  154.0267   44.2484  146.3263 C   0  0  0  0  0  0  0  0  0  0  0  0
  153.4297   44.5180  145.1405 N   0  0  0  0  0  0  0  0  0  0  0  0
  154.1826   45.4241  144.4915 C   0  0  0  0  0  0  0  0  0  0  0  0
  154.1203   46.1375  143.1941 C   0  0  0  0  0  0  0  0  0  0  0  0
  153.1719   45.9256  142.4006 O   0  0  0  0  0  0  0  0  0  0  0  0
  155.1065   47.0040  142.9061 N   0  0  0  0  0  0  0  0  0  0  0  0
  156.1230   47.2267  143.7605 C   0  0  0  0  0  0  0  0  0  0  0  0
  157.0850   48.1133  143.4201 N   0  0  0  0  0  0  0  0  0  0  0  0
  156.2407   46.6104  144.9585 N   0  0  0  0  0  0  0  0  0  0  0  0
  155.3188   45.7145  145.3715 C   0  0  0  0  0  0  0  0  0  0  0  0
  159.5597   41.7391  147.2862 P   0  0  2  0  0  0  0  0  0  0  0  0
  158.2807   40.9383  147.3187 O   0  0  0  0  0  0  0  0  0  0  0  0
  160.7284   41.3790  148.1843 O   0  0  0  0  0  0  0  0  0  0  0  0
  160.0606   41.7890  145.7513 O   0  0  0  0  0  0  0  0  0  0  0  0
  161.3938   42.1966  145.4464 C   0  0  0  0  0  0  0  0  0  0  0  0
  161.5723   42.6330  143.9888 C   0  0  1  0  0  0  0  0  0  0  0  0
  161.5514   41.4801  143.1444 O   0  0  0  0  0  0  0  0  0  0  0  0
  160.5011   43.5857  143.4627 C   0  0  1  0  0  0  0  0  0  0  0  0
  160.8906   44.9537  143.5762 O   0  0  0  0  0  0  0  0  0  0  0  0
  160.3752   43.1601  142.0118 C   0  0  1  0  0  0  0  0  0  0  0  0
  161.3322   43.8422  141.1967 O   0  0  0  0  0  0  0  0  0  0  0  0
  160.7294   41.6878  141.9928 C   0  0  2  0  0  0  0  0  0  0  0  0
  159.4938   40.8785  142.1359 N   0  0  0  0  0  0  0  0  0  0  0  0
  159.1754   40.1107  143.1969 C   0  0  0  0  0  0  0  0  0  0  0  0
  157.9682   39.5003  143.0376 N   0  0  0  0  0  0  0  0  0  0  0  0
  157.4845   39.8854  141.8460 C   0  0  0  0  0  0  0  0  0  0  0  0
  156.2645   39.6089  141.0454 C   0  0  0  0  0  0  0  0  0  0  0  0
  155.3496   38.8629  141.4558 O   0  0  0  0  0  0  0  0  0  0  0  0
  156.1568   40.2112  139.8599 N   0  0  0  0  0  0  0  0  0  0  0  0
  157.1082   41.0255  139.3776 C   0  0  0  0  0  0  0  0  0  0  0  0
  156.9027   41.5668  138.1676 N   0  0  0  0  0  0  0  0  0  0  0  0
  158.2502   41.3194  140.0421 N   0  0  0  0  0  0  0  0  0  0  0  0
  158.4940   40.7894  141.2591 C   0  0  0  0  0  0  0  0  0  0  0  0
  1  3  2  6  0  0  0
  1 32  1  0  0  0  0
  1  2  1  0  0  0  0
  1  4  1  0  0  0  0
  4  5  1  0  0  0  0
  6  5  1  6  0  0  0
  7  6  1  0  0  0  0
  8  6  1  0  0  0  0
  8 10  1  0  0  0  0
  8  9  1  1  0  0  0
 10 11  1  1  0  0  0
 12 13  1  6  0  0  0
 12  7  1  0  0  0  0
 12 10  1  0  0  0  0
 14 13  1  0  0  0  0
 15 16  1  0  0  0  0
 15 14  2  0  0  0  0
 16 23  2  0  0  0  0
 17 16  1  0  0  0  0
 17 19  1  0  0  0  0
 18 17  2  0  0  0  0
 19 20  2  0  0  0  0
 20 22  1  0  0  0  0
 20 21  1  0  0  0  0
 23 13  1  0  0  0  0
 23 22  1  0  0  0  0
 24 25  2  1  0  0  0
 24  9  1  0  0  0  0
 24 26  1  0  0  0  0
 27 28  1  0  0  0  0
 27 24  1  0  0  0  0
 29 30  1  6  0  0  0
 29 28  1  0  0  0  0
 31 32  1  6  0  0  0
 31 29  1  0  0  0  0
 33 34  1  6  0  0  0
 33 35  1  0  0  0  0
 33 31  1  0  0  0  0
 35 36  1  1  0  0  0
 35 30  1  0  0  0  0
 36 37  1  0  0  0  0
 38 37  2  0  0  0  0
 39 38  1  0  0  0  0
 40 41  2  0  0  0  0
 40 39  1  0  0  0  0
 42 40  1  0  0  0  0
 43 42  2  0  0  0  0
 43 45  1  0  0  0  0
 44 43  1  0  0  0  0
 45 46  1  0  0  0  0
 46 39  2  0  0  0  0
 46 36  1  0  0  0  0
M  END
>  <CHROM.1>
-169.79068521,2.14453452,158.05131568,43.53636403,144.19868008,-1.89288221
0.65783337,-2.14546363

>  <Name>
lig.pdb

>  <RI>
0

>  <Rbt.Current_Directory>
/home/itssahil/PROJECTS/Mol_Feturizer/New_Systems/rnas/4yb0

>  <Rbt.Executable>
rbdock ($Id: //depot/dev/client3/rdock/2013.1/src/exe/rbdock.cxx#4 $)

>  <Rbt.Library>
libRbt.so (2013.1, Build901 2013/11/27)

>  <Rbt.Parameter_File>
/export/apps/rDock/src/rDock_2013.1_src/data/scripts/dock_solv.prm

>  <Rbt.Receptor>
prm/pocket_docking_2.prm

>  <SCORE>
-44.858

>  <SCORE.INTER>
-47.1182

>  <SCORE.INTER.CONST>
1

>  <SCORE.INTER.POLAR>
0

>  <SCORE.INTER.ROT>
2

>  <SCORE.INTER.SOLV>
27.7821

>  <SCORE.INTER.VDW>
-45.6062

>  <SCORE.INTER.norm>
-1.02431

>  <SCORE.INTRA>
0.00902344

>  <SCORE.INTRA.DIHEDRAL>
0.0877627

>  <SCORE.INTRA.DIHEDRAL.0>
4.74153

>  <SCORE.INTRA.POLAR>
0

>  <SCORE.INTRA.POLAR.0>
0

>  <SCORE.INTRA.REPUL>
0

>  <SCORE.INTRA.REPUL.0>
0

>  <SCORE.INTRA.SOLV>
3.23038

>  <SCORE.INTRA.SOLV.lig_0>
-60.4375

>  <SCORE.INTRA.VDW>
-1.65005

>  <SCORE.INTRA.VDW.0>
-1.83689

>  <SCORE.INTRA.norm>
0.000196162

>  <SCORE.RESTR>
2.25117

>  <SCORE.RESTR.CAVITY>
2.25117

>  <SCORE.RESTR.norm>
0.0489384

>  <SCORE.SYSTEM>
0

>  <SCORE.SYSTEM.CONST>
0

>  <SCORE.SYSTEM.DIHEDRAL>
0

>  <SCORE.SYSTEM.SOLV>
0

>  <SCORE.SYSTEM.norm>
0

>  <SCORE.heavy>
46

>  <SCORE.norm>
-0.975175

>  <RMSD>
2.068

$$$$
lig.pdb
 OpenBabel11021811523D
libRbt.so/2013.1/901 2013/11/27
 46 52  0  0  0  0  0  0  0  0999 V2000
  159.7834   46.0817  143.6528 P   0  0  2  0  0  0  0  0  0  0  0  0
  160.4139   47.4374  143.8852 O   0  0  0  0  0  0  0  0  0  0  0  0
  158.9472   45.9276  142.4085 O   0  0  0  0  0  0  0  0  0  0  0  0
  158.8988   45.6244  144.9151 O   0  0  0  0  0  0  0  0  0  0  0  0
  158.9290   46.3396  146.1433 C   0  0  0  0  0  0  0  0  0  0  0  0
  158.3321   45.4911  147.2539 C   0  0  1  0  0  0  0  0  0  0  0  0
  157.0203   45.9692  147.5156 O   0  0  0  0  0  0  0  0  0  0  0  0
  158.1905   44.0059  146.9456 C   0  0  1  0  0  0  0  0  0  0  0  0
  159.2118   43.2796  147.6134 O   0  0  0  0  0  0  0  0  0  0  0  0
  156.8653   43.6400  147.5756 C   0  0  1  0  0  0  0  0  0  0  0  0
  157.0746   43.2269  148.9274 O   0  0  0  0  0  0  0  0  0  0  0  0
  156.0757   44.9157  147.6276 C   0  0  2  0  0  0  0  0  0  0  0  0
  155.1632   44.9712  146.4610 N   0  0  0  0  0  0  0  0  0  0  0  0
  154.0274   44.2658  146.3205 C   0  0  0  0  0  0  0  0  0  0  0  0
  153.4398   44.5392  145.1309 N   0  0  0  0  0  0  0  0  0  0  0  0
  154.2050   45.4370  144.4849 C   0  0  0  0  0  0  0  0  0  0  0  0
  154.1570   46.1488  143.1860 C   0  0  0  0  0  0  0  0  0  0  0  0
  153.2112   45.9448  142.3874 O   0  0  0  0  0  0  0  0  0  0  0  0
  155.1531   47.0054  142.9023 N   0  0  0  0  0  0  0  0  0  0  0  0
  156.1668   47.2197  143.7622 C   0  0  0  0  0  0  0  0  0  0  0  0
  157.1392   48.0965  143.4260 N   0  0  0  0  0  0  0  0  0  0  0  0
  156.2717   46.6042  144.9618 N   0  0  0  0  0  0  0  0  0  0  0  0
  155.3389   45.7179  145.3709 C   0  0  0  0  0  0  0  0  0  0  0  0
  159.5435   41.7202  147.3066 P   0  0  2  0  0  0  0  0  0  0  0  0
  158.2599   40.9265  147.3303 O   0  0  0  0  0  0  0  0  0  0  0  0
  160.7048   41.3522  148.2111 O   0  0  0  0  0  0  0  0  0  0  0  0
  160.0538   41.7698  145.7748 O   0  0  0  0  0  0  0  0  0  0  0  0
  161.3909   42.1705  145.4784 C   0  0  0  0  0  0  0  0  0  0  0  0
  161.5805   42.6082  144.0227 C   0  0  1  0  0  0  0  0  0  0  0  0
  161.5583   41.4568  143.1763 O   0  0  0  0  0  0  0  0  0  0  0  0
  160.5177   43.5676  143.4918 C   0  0  1  0  0  0  0  0  0  0  0  0
  160.9141   44.9333  143.6098 O   0  0  0  0  0  0  0  0  0  0  0  0
  160.3980   43.1451  142.0395 C   0  0  1  0  0  0  0  0  0  0  0  0
  161.3637   43.8232  141.2311 O   0  0  0  0  0  0  0  0  0  0  0  0
  160.7442   41.6709  142.0201 C   0  0  2  0  0  0  0  0  0  0  0  0
  159.5033   40.8682  142.1547 N   0  0  0  0  0  0  0  0  0  0  0  0
  159.1768   40.0965  143.2103 C   0  0  0  0  0  0  0  0  0  0  0  0
  157.9665   39.4943  143.0436 N   0  0  0  0  0  0  0  0  0  0  0  0
  157.4892   39.8887  141.8524 C   0  0  0  0  0  0  0  0  0  0  0  0
  156.2704   39.6239  141.0462 C   0  0  0  0  0  0  0  0  0  0  0  0
  155.3496   38.8812  141.4494 O   0  0  0  0  0  0  0  0  0  0  0  0
  156.1703   40.2332  139.8637 N   0  0  0  0  0  0  0  0  0  0  0  0
  157.1281   41.0445  139.3891 C   0  0  0  0  0  0  0  0  0  0  0  0
  156.9300   41.5936  138.1814 N   0  0  0  0  0  0  0  0  0  0  0  0
  158.2696   41.3279  140.0591 N   0  0  0  0  0  0  0  0  0  0  0  0
  158.5060   40.7899  141.2740 C   0  0  0  0  0  0  0  0  0  0  0  0
  1  3  2  6  0  0  0
  1 32  1  0  0  0  0
  1  2  1  0  0  0  0
  1  4  1  0  0  0  0
  4  5  1  0  0  0  0
  6  5  1  6  0  0  0
  7  6  1  0  0  0  0
  8  6  1  0  0  0  0
  8 10  1  0  0  0  0
  8  9  1  1  0  0  0
 10 11  1  1  0  0  0
 12 13  1  6  0  0  0
 12  7  1  0  0  0  0
 12 10  1  0  0  0  0
 14 13  1  0  0  0  0
 15 16  1  0  0  0  0
 15 14  2  0  0  0  0
 16 23  2  0  0  0  0
 17 16  1  0  0  0  0
 17 19  1  0  0  0  0
 18 17  2  0  0  0  0
 19 20  2  0  0  0  0
 20 22  1  0  0  0  0
 20 21  1  0  0  0  0
 23 13  1  0  0  0  0
 23 22  1  0  0  0  0
 24 25  2  1  0  0  0
 24  9  1  0  0  0  0
 24 26  1  0  0  0  0
 27 28  1  0  0  0  0
 27 24  1  0  0  0  0
 29 30  1  6  0  0  0
 29 28  1  0  0  0  0
 31 32  1  6  0  0  0
 31 29  1  0  0  0  0
 33 34  1  6  0  0  0
 33 35  1  0  0  0  0
 33 31  1  0  0  0  0
 35 36  1  1  0  0  0
 35 30  1  0  0  0  0
 36 37  1  0  0  0  0
 38 37  2  0  0  0  0
 39 38  1  0  0  0  0
 40 41  2  0  0  0  0
 40 39  1  0  0  0  0
 42 40  1  0  0  0  0
 43 42  2  0  0  0  0
 43 45  1  0  0  0  0
 44 43  1  0  0  0  0
 45 46  1  0  0  0  0
 46 39  2  0  0  0  0
 46 36  1  0  0  0  0
M  END
>  <CHROM.1>
-169.49442143,1.87922451,158.06355951,43.53059329,144.21309086,-1.89371765
0.66498130,-2.14153212

>  <Name>
lig.pdb

>  <RI>
0

>  <Rbt.Current_Directory>
/home/itssahil/PROJECTS/Mol_Feturizer/New_Systems/rnas/4yb0

>  <Rbt.Executable>
rbdock ($Id: //depot/dev/client3/rdock/2013.1/src/exe/rbdock.cxx#4 $)

>  <Rbt.Library>
libRbt.so (2013.1, Build901 2013/11/27)

>  <Rbt.Parameter_File>
/export/apps/rDock/src/rDock_2013.1_src/data/scripts/dock_solv.prm

>  <Rbt.Receptor>
prm/pocket_docking_2.prm

>  <SCORE>
-44.961

>  <SCORE.INTER>
-47.2662

>  <SCORE.INTER.CONST>
1

>  <SCORE.INTER.POLAR>
0

>  <SCORE.INTER.ROT>
2

>  <SCORE.INTER.SOLV>
27.6228

>  <SCORE.INTER.VDW>
-45.6517

>  <SCORE.INTER.norm>
-1.02753

>  <SCORE.INTRA>
0.0280566

>  <SCORE.INTRA.DIHEDRAL>
0.0875316

>  <SCORE.INTRA.DIHEDRAL.0>
4.74153

>  <SCORE.INTRA.POLAR>
0

>  <SCORE.INTRA.POLAR.0>
0

>  <SCORE.INTRA.REPUL>
0

>  <SCORE.INTRA.REPUL.0>
0

>  <SCORE.INTRA.SOLV>
3.26965

>  <SCORE.INTRA.SOLV.lig_0>
-60.4375

>  <SCORE.INTRA.VDW>
-1.65054

>  <SCORE.INTRA.VDW.0>
-1.83689

>  <SCORE.INTRA.norm>
0.000609926

>  <SCORE.RESTR>
2.27713

>  <SCORE.RESTR.CAVITY>
2.27713

>  <SCORE.RESTR.norm>
0.0495029

>  <SCORE.SYSTEM>
0

>  <SCORE.SYSTEM.CONST>
0

>  <SCORE.SYSTEM.DIHEDRAL>
0

>  <SCORE.SYSTEM.SOLV>
0

>  <SCORE.SYSTEM.norm>
0

>  <SCORE.heavy>
46

>  <SCORE.norm>
-0.977412

>  <RMSD>
2.073

$$$$
lig.pdb
 OpenBabel11021811523D
libRbt.so/2013.1/901 2013/11/27
 46 52  0  0  0  0  0  0  0  0999 V2000
  159.9453   46.0180  143.5808 P   0  0  2  0  0  0  0  0  0  0  0  0
  160.6209   47.3533  143.8050 O   0  0  0  0  0  0  0  0  0  0  0  0
  159.1119   45.8815  142.3327 O   0  0  0  0  0  0  0  0  0  0  0  0
  159.0377   45.6032  144.8415 O   0  0  0  0  0  0  0  0  0  0  0  0
  159.0852   46.3283  146.0635 C   0  0  0  0  0  0  0  0  0  0  0  0
  158.4526   45.5112  147.1778 C   0  0  1  0  0  0  0  0  0  0  0  0
  157.1565   46.0367  147.4268 O   0  0  0  0  0  0  0  0  0  0  0  0
  158.2615   44.0290  146.8820 C   0  0  1  0  0  0  0  0  0  0  0  0
  159.2530   43.2741  147.5629 O   0  0  0  0  0  0  0  0  0  0  0  0
  156.9207   43.7150  147.5068 C   0  0  1  0  0  0  0  0  0  0  0  0
  157.1073   43.3073  148.8636 O   0  0  0  0  0  0  0  0  0  0  0  0
  156.1754   45.0176  147.5422 C   0  0  2  0  0  0  0  0  0  0  0  0
  155.2724   45.0938  146.3694 N   0  0  0  0  0  0  0  0  0  0  0  0
  154.3195   44.1991  146.0548 C   0  0  0  0  0  0  0  0  0  0  0  0
  153.6857   44.5586  144.9128 N   0  0  0  0  0  0  0  0  0  0  0  0
  154.2343   45.7060  144.4753 C   0  0  0  0  0  0  0  0  0  0  0  0
  154.0303   46.6227  143.3290 C   0  0  0  0  0  0  0  0  0  0  0  0
  153.1522   46.3736  142.4683 O   0  0  0  0  0  0  0  0  0  0  0  0
  154.8134   47.7121  143.2491 N   0  0  0  0  0  0  0  0  0  0  0  0
  155.7556   47.9741  144.1747 C   0  0  0  0  0  0  0  0  0  0  0  0
  156.5111   49.0877  144.0460 N   0  0  0  0  0  0  0  0  0  0  0  0
  155.9938   47.1807  145.2436 N   0  0  0  0  0  0  0  0  0  0  0  0
  155.2791   46.0528  145.4437 C   0  0  0  0  0  0  0  0  0  0  0  0
  159.5325   41.7014  147.2723 P   0  0  2  0  0  0  0  0  0  0  0  0
  158.2221   40.9527  147.2949 O   0  0  0  0  0  0  0  0  0  0  0  0
  160.6748   41.3019  148.1874 O   0  0  0  0  0  0  0  0  0  0  0  0
  160.0534   41.7192  145.7434 O   0  0  0  0  0  0  0  0  0  0  0  0
  161.4054   42.0707  145.4519 C   0  0  0  0  0  0  0  0  0  0  0  0
  161.6189   42.4881  143.9936 C   0  0  1  0  0  0  0  0  0  0  0  0
  161.5619   41.3303  143.1574 O   0  0  0  0  0  0  0  0  0  0  0  0
  160.5931   43.4787  143.4473 C   0  0  1  0  0  0  0  0  0  0  0  0
  161.0358   44.8309  143.5554 O   0  0  0  0  0  0  0  0  0  0  0  0
  160.4677   43.0471  141.9981 C   0  0  1  0  0  0  0  0  0  0  0  0
  161.4612   43.6840  141.1898 O   0  0  0  0  0  0  0  0  0  0  0  0
  160.7628   41.5617  141.9942 C   0  0  2  0  0  0  0  0  0  0  0  0
  159.4941   40.8037  142.1281 N   0  0  0  0  0  0  0  0  0  0  0  0
  159.1332   40.0562  143.1899 C   0  0  0  0  0  0  0  0  0  0  0  0
  157.9043   39.4938  143.0205 N   0  0  0  0  0  0  0  0  0  0  0  0
  157.4499   39.8903  141.8210 C   0  0  0  0  0  0  0  0  0  0  0  0
  156.2289   39.6578  141.0082 C   0  0  0  0  0  0  0  0  0  0  0  0
  155.2801   38.9519  141.4126 O   0  0  0  0  0  0  0  0  0  0  0  0
  156.1588   40.2562  139.8179 N   0  0  0  0  0  0  0  0  0  0  0  0
  157.1475   41.0285  139.3417 C   0  0  0  0  0  0  0  0  0  0  0  0
  156.9776   41.5697  138.1262 N   0  0  0  0  0  0  0  0  0  0  0  0
  158.2930   41.2806  140.0175 N   0  0  0  0  0  0  0  0  0  0  0  0
  158.5015   40.7491  141.2404 C   0  0  0  0  0  0  0  0  0  0  0  0
  1  3  2  6  0  0  0
  1 32  1  0  0  0  0
  1  2  1  0  0  0  0
  1  4  1  0  0  0  0
  4  5  1  0  0  0  0
  6  5  1  6  0  0  0
  7  6  1  0  0  0  0
  8  6  1  0  0  0  0
  8 10  1  0  0  0  0
  8  9  1  1  0  0  0
 10 11  1  1  0  0  0
 12 13  1  6  0  0  0
 12  7  1  0  0  0  0
 12 10  1  0  0  0  0
 14 13  1  0  0  0  0
 15 16  1  0  0  0  0
 15 14  2  0  0  0  0
 16 23  2  0  0  0  0
 17 16  1  0  0  0  0
 17 19  1  0  0  0  0
 18 17  2  0  0  0  0
 19 20  2  0  0  0  0
 20 22  1  0  0  0  0
 20 21  1  0  0  0  0
 23 13  1  0  0  0  0
 23 22  1  0  0  0  0
 24 25  2  1  0  0  0
 24  9  1  0  0  0  0
 24 26  1  0  0  0  0
 27 28  1  0  0  0  0
 27 24  1  0  0  0  0
 29 30  1  6  0  0  0
 29 28  1  0  0  0  0
 31 32  1  6  0  0  0
 31 29  1  0  0  0  0
 33 34  1  6  0  0  0
 33 35  1  0  0  0  0
 33 31  1  0  0  0  0
 35 36  1  1  0  0  0
 35 30  1  0  0  0  0
 36 37  1  0  0  0  0
 38 37  2  0  0  0  0
 39 38  1  0  0  0  0
 40 41  2  0  0  0  0
 40 39  1  0  0  0  0
 42 40  1  0  0  0  0
 43 42  2  0  0  0  0
 43 45  1  0  0  0  0
 44 43  1  0  0  0  0
 45 46  1  0  0  0  0
 46 39  2  0  0  0  0
 46 36  1  0  0  0  0
M  END
>  <CHROM.1>
171.94395137,2.05300231,158.07698741,43.59925682,144.20194648,-2.02593977
0.69964335,-2.18729373

>  <Name>
lig.pdb

>  <RI>
0

>  <Rbt.Current_Directory>
/home/itssahil/PROJECTS/Mol_Feturizer/New_Systems/rnas/4yb0

>  <Rbt.Executable>
rbdock ($Id: //depot/dev/client3/rdock/2013.1/src/exe/rbdock.cxx#4 $)

>  <Rbt.Library>
libRbt.so (2013.1, Build901 2013/11/27)

>  <Rbt.Parameter_File>
/export/apps/rDock/src/rDock_2013.1_src/data/scripts/dock_solv.prm

>  <Rbt.Receptor>
prm/pocket_docking_6.prm

>  <SCORE>
-48.3041

>  <SCORE.INTER>
-47.9837

>  <SCORE.INTER.CONST>
1

>  <SCORE.INTER.POLAR>
0

>  <SCORE.INTER.ROT>
2

>  <SCORE.INTER.SOLV>
28.9963

>  <SCORE.INTER.VDW>
-46.5879

>  <SCORE.INTER.norm>
-1.04312

>  <SCORE.INTRA>
-0.320458

>  <SCORE.INTRA.DIHEDRAL>
0.0454491

>  <SCORE.INTRA.DIHEDRAL.0>
4.74153

>  <SCORE.INTRA.POLAR>
0

>  <SCORE.INTRA.POLAR.0>
0

>  <SCORE.INTRA.REPUL>
0

>  <SCORE.INTRA.REPUL.0>
0

>  <SCORE.INTRA.SOLV>
0.629317

>  <SCORE.INTRA.SOLV.lig_0>
-60.4375

>  <SCORE.INTRA.VDW>
-0.657841

>  <SCORE.INTRA.VDW.0>
-1.83689

>  <SCORE.INTRA.norm>
-0.00696649

>  <SCORE.RESTR>
0

>  <SCORE.RESTR.CAVITY>
0

>  <SCORE.RESTR.norm>
0

>  <SCORE.SYSTEM>
0

>  <SCORE.SYSTEM.CONST>
0

>  <SCORE.SYSTEM.DIHEDRAL>
0

>  <SCORE.SYSTEM.SOLV>
0

>  <SCORE.SYSTEM.norm>
0

>  <SCORE.heavy>
46

>  <SCORE.norm>
-1.05009

>  <RMSD>
2.086

$$$$
lig.pdb
 OpenBabel11021811523D
libRbt.so/2013.1/901 2013/11/27
 46 52  0  0  0  0  0  0  0  0999 V2000
  159.3258   42.2054  147.7797 P   0  0  2  0  0  0  0  0  0  0  0  0
  160.4874   41.6809  148.5953 O   0  0  0  0  0  0  0  0  0  0  0  0
  158.0412   41.4203  147.8471 O   0  0  0  0  0  0  0  0  0  0  0  0
  159.7294   42.3809  146.2333 O   0  0  0  0  0  0  0  0  0  0  0  0
  161.0769   42.2578  145.7972 C   0  0  0  0  0  0  0  0  0  0  0  0
  161.2288   42.8477  144.4049 C   0  0  1  0  0  0  0  0  0  0  0  0
  161.2934   41.7738  143.4772 O   0  0  0  0  0  0  0  0  0  0  0  0
  160.0877   43.7438  143.9402 C   0  0  1  0  0  0  0  0  0  0  0  0
  160.4848   45.1047  144.0226 O   0  0  0  0  0  0  0  0  0  0  0  0
  159.9326   43.3874  142.4788 C   0  0  1  0  0  0  0  0  0  0  0  0
  160.7712   44.2316  141.6875 O   0  0  0  0  0  0  0  0  0  0  0  0
  160.4680   41.9916  142.3432 C   0  0  2  0  0  0  0  0  0  0  0  0
  159.3400   41.0312  142.3865 N   0  0  0  0  0  0  0  0  0  0  0  0
  159.0958   40.1536  143.3753 C   0  0  0  0  0  0  0  0  0  0  0  0
  157.9958   39.4138  143.0960 N   0  0  0  0  0  0  0  0  0  0  0  0
  157.5152   39.8151  141.9057 C   0  0  0  0  0  0  0  0  0  0  0  0
  156.3760   39.4492  141.0313 C   0  0  0  0  0  0  0  0  0  0  0  0
  155.5826   38.5397  141.3736 O   0  0  0  0  0  0  0  0  0  0  0  0
  156.2318   40.1186  139.8748 N   0  0  0  0  0  0  0  0  0  0  0  0
  157.0871   41.0929  139.5113 C   0  0  0  0  0  0  0  0  0  0  0  0
  156.8902   41.7359  138.3386 N   0  0  0  0  0  0  0  0  0  0  0  0
  158.1457   41.4757  140.2608 N   0  0  0  0  0  0  0  0  0  0  0  0
  158.4072   40.8841  141.4459 C   0  0  0  0  0  0  0  0  0  0  0  0
  159.4497   46.3465  143.8723 P   0  0  2  0  0  0  0  0  0  0  0  0
  158.6034   46.1399  142.6397 O   0  0  0  0  0  0  0  0  0  0  0  0
  160.2768   47.6061  144.0484 O   0  0  0  0  0  0  0  0  0  0  0  0
  158.4892   46.1537  145.1567 O   0  0  0  0  0  0  0  0  0  0  0  0
  158.9186   46.5946  146.4442 C   0  0  0  0  0  0  0  0  0  0  0  0
  158.1411   45.9463  147.5939 C   0  0  1  0  0  0  0  0  0  0  0  0
  156.8283   46.5082  147.6526 O   0  0  0  0  0  0  0  0  0  0  0  0
  157.9696   44.4327  147.4864 C   0  0  1  0  0  0  0  0  0  0  0  0
  158.9779   43.7216  148.2033 O   0  0  0  0  0  0  0  0  0  0  0  0
  156.5966   44.2194  148.0959 C   0  0  1  0  0  0  0  0  0  0  0  0
  156.6875   44.0730  149.5158 O   0  0  0  0  0  0  0  0  0  0  0  0
  155.8313   45.4965  147.8190 C   0  0  2  0  0  0  0  0  0  0  0  0
  155.0764   45.3568  146.5490 N   0  0  0  0  0  0  0  0  0  0  0  0
  154.0767   44.4820  146.3208 C   0  0  0  0  0  0  0  0  0  0  0  0
  153.5732   44.6042  145.0612 N   0  0  0  0  0  0  0  0  0  0  0  0
  154.2572   45.5878  144.4555 C   0  0  0  0  0  0  0  0  0  0  0  0
  154.2518   46.2278  143.1153 C   0  0  0  0  0  0  0  0  0  0  0  0
  153.4521   45.8907  142.2159 O   0  0  0  0  0  0  0  0  0  0  0  0
  155.1266   47.2117  142.8997 N   0  0  0  0  0  0  0  0  0  0  0  0
  156.0013   47.6143  143.8344 C   0  0  0  0  0  0  0  0  0  0  0  0
  156.8456   48.6032  143.5051 N   0  0  0  0  0  0  0  0  0  0  0  0
  156.0738   47.0756  145.0741 N   0  0  0  0  0  0  0  0  0  0  0  0
  155.2443   46.0757  145.4394 C   0  0  0  0  0  0  0  0  0  0  0  0
  1  3  2  1  0  0  0
  1 32  1  0  0  0  0
  1  2  1  0  0  0  0
  1  4  1  0  0  0  0
  4  5  1  0  0  0  0
  6  5  1  1  0  0  0
  7  6  1  0  0  0  0
  8  6  1  0  0  0  0
  8 10  1  0  0  0  0
  8  9  1  6  0  0  0
 10 11  1  6  0  0  0
 12 13  1  1  0  0  0
 12  7  1  0  0  0  0
 12 10  1  0  0  0  0
 14 13  1  0  0  0  0
 15 16  1  0  0  0  0
 15 14  2  0  0  0  0
 16 23  2  0  0  0  0
 17 16  1  0  0  0  0
 17 19  1  0  0  0  0
 18 17  2  0  0  0  0
 19 20  2  0  0  0  0
 20 22  1  0  0  0  0
 20 21  1  0  0  0  0
 23 13  1  0  0  0  0
 23 22  1  0  0  0  0
 24 25  2  6  0  0  0
 24  9  1  0  0  0  0
 24 26  1  0  0  0  0
 27 28  1  0  0  0  0
 27 24  1  0  0  0  0
 29 30  1  6  0  0  0
 29 28  1  0  0  0  0
 31 32  1  1  0  0  0
 31 29  1  0  0  0  0
 33 34  1  1  0  0  0
 33 35  1  0  0  0  0
 33 31  1  0  0  0  0
 35 36  1  6  0  0  0
 35 30  1  0  0  0  0
 36 37  1  0  0  0  0
 38 37  2  0  0  0  0
 39 38  1  0  0  0  0
 40 41  2  0  0  0  0
 40 39  1  0  0  0  0
 42 40  1  0  0  0  0
 43 42  2  0  0  0  0
 43 45  1  0  0  0  0
 44 43  1  0  0  0  0
 45 46  1  0  0  0  0
 46 39  2  0  0  0  0
 46 36  1  0  0  0  0
M  END
>  <CHROM.1>
3.58920001,178.63615017,157.89055005,43.79916649,144.44540394,-1.76652724
0.82769752,-2.17016532

>  <Name>
lig.pdb

>  <RI>
0

>  <Rbt.Current_Directory>
/home/itssahil/PROJECTS/Mol_Feturizer/New_Systems/rnas/4yb0

>  <Rbt.Executable>
rbdock ($Id: //depot/dev/client3/rdock/2013.1/src/exe/rbdock.cxx#4 $)

>  <Rbt.Library>
libRbt.so (2013.1, Build901 2013/11/27)

>  <Rbt.Parameter_File>
/export/apps/rDock/src/rDock_2013.1_src/data/scripts/dock_solv.prm

>  <Rbt.Receptor>
prm/pocket_docking_2.prm

>  <SCORE>
-41.5135

>  <SCORE.INTER>
-44.5384

>  <SCORE.INTER.CONST>
1

>  <SCORE.INTER.POLAR>
0

>  <SCORE.INTER.ROT>
2

>  <SCORE.INTER.SOLV>
26.3369

>  <SCORE.INTER.VDW>
-43.4046

>  <SCORE.INTER.norm>
-0.968227

>  <SCORE.INTRA>
0.208289

>  <SCORE.INTRA.DIHEDRAL>
0.0548688

>  <SCORE.INTRA.DIHEDRAL.0>
4.74153

>  <SCORE.INTRA.POLAR>
0

>  <SCORE.INTRA.POLAR.0>
0

>  <SCORE.INTRA.REPUL>
0.0296412

>  <SCORE.INTRA.REPUL.0>
0

>  <SCORE.INTRA.SOLV>
3.09773

>  <SCORE.INTRA.SOLV.lig_0>
-60.4375

>  <SCORE.INTRA.VDW>
-1.51622

>  <SCORE.INTRA.VDW.0>
-1.83689

>  <SCORE.INTRA.norm>
0.00452803

>  <SCORE.RESTR>
2.81666

>  <SCORE.RESTR.CAVITY>
2.81666

>  <SCORE.RESTR.norm>
0.0612317

>  <SCORE.SYSTEM>
0

>  <SCORE.SYSTEM.CONST>
0

>  <SCORE.SYSTEM.DIHEDRAL>
0

>  <SCORE.SYSTEM.SOLV>
0

>  <SCORE.SYSTEM.norm>
0

>  <SCORE.heavy>
46

>  <SCORE.norm>
-0.902467

>  <RMSD>
2.093

$$$$
lig.pdb
 OpenBabel11021811523D
libRbt.so/2013.1/901 2013/11/27
 46 52  0  0  0  0  0  0  0  0999 V2000
  159.9780   46.1095  143.6511 P   0  0  2  0  0  0  0  0  0  0  0  0
  160.6294   47.4566  143.8761 O   0  0  0  0  0  0  0  0  0  0  0  0
  159.1476   45.9585  142.4026 O   0  0  0  0  0  0  0  0  0  0  0  0
  159.0776   45.6780  144.9113 O   0  0  0  0  0  0  0  0  0  0  0  0
  159.1116   46.4033  146.1335 C   0  0  0  0  0  0  0  0  0  0  0  0
  158.4933   45.5744  147.2473 C   0  0  1  0  0  0  0  0  0  0  0  0
  157.1879   46.0764  147.4960 O   0  0  0  0  0  0  0  0  0  0  0  0
  158.3291   44.0892  146.9508 C   0  0  1  0  0  0  0  0  0  0  0  0
  159.3338   43.3520  147.6317 O   0  0  0  0  0  0  0  0  0  0  0  0
  156.9939   43.7508  147.5750 C   0  0  1  0  0  0  0  0  0  0  0  0
  157.1874   43.3460  148.9317 O   0  0  0  0  0  0  0  0  0  0  0  0
  156.2253   45.0397  147.6107 C   0  0  2  0  0  0  0  0  0  0  0  0
  155.3215   45.1002  146.4375 N   0  0  0  0  0  0  0  0  0  0  0  0
  154.3742   44.1969  146.1310 C   0  0  0  0  0  0  0  0  0  0  0  0
  153.7377   44.5425  144.9861 N   0  0  0  0  0  0  0  0  0  0  0  0
  154.2790   45.6895  144.5386 C   0  0  0  0  0  0  0  0  0  0  0  0
  154.0690   46.5950  143.3845 C   0  0  0  0  0  0  0  0  0  0  0  0
  153.1922   46.3330  142.5263 O   0  0  0  0  0  0  0  0  0  0  0  0
  154.8452   47.6886  143.2950 N   0  0  0  0  0  0  0  0  0  0  0  0
  155.7859   47.9645  144.2179 C   0  0  0  0  0  0  0  0  0  0  0  0
  156.5344   49.0816  144.0794 N   0  0  0  0  0  0  0  0  0  0  0  0
  156.0295   47.1818  145.2935 N   0  0  0  0  0  0  0  0  0  0  0  0
  155.3219   46.0513  145.5037 C   0  0  0  0  0  0  0  0  0  0  0  0
  159.6416   41.7846  147.3406 P   0  0  2  0  0  0  0  0  0  0  0  0
  158.3449   41.0125  147.3625 O   0  0  0  0  0  0  0  0  0  0  0  0
  160.7906   41.4054  148.2560 O   0  0  0  0  0  0  0  0  0  0  0  0
  160.1627   41.8124  145.8119 O   0  0  0  0  0  0  0  0  0  0  0  0
  161.5083   42.1883  145.5211 C   0  0  0  0  0  0  0  0  0  0  0  0
  161.7147   42.6101  144.0630 C   0  0  1  0  0  0  0  0  0  0  0  0
  161.6789   41.4519  143.2264 O   0  0  0  0  0  0  0  0  0  0  0  0
  160.6715   43.5823  143.5167 C   0  0  1  0  0  0  0  0  0  0  0  0
  161.0898   44.9422  143.6256 O   0  0  0  0  0  0  0  0  0  0  0  0
  160.5544   43.1492  142.0673 C   0  0  1  0  0  0  0  0  0  0  0  0
  161.5365   43.8042  141.2597 O   0  0  0  0  0  0  0  0  0  0  0  0
  160.8762   41.6693  142.0630 C   0  0  2  0  0  0  0  0  0  0  0  0
  159.6213   40.8885  142.1961 N   0  0  0  0  0  0  0  0  0  0  0  0
  159.2880   40.1086  143.2435 C   0  0  0  0  0  0  0  0  0  0  0  0
  158.0652   39.5317  143.0778 N   0  0  0  0  0  0  0  0  0  0  0  0
  157.5867   39.9517  141.8959 C   0  0  0  0  0  0  0  0  0  0  0  0
  156.3570   39.7212  141.0956 C   0  0  0  0  0  0  0  0  0  0  0  0
  155.4253   38.9905  141.4957 O   0  0  0  0  0  0  0  0  0  0  0  0
  156.2598   40.3486  139.9223 N   0  0  0  0  0  0  0  0  0  0  0  0
  157.2294   41.1481  139.4515 C   0  0  0  0  0  0  0  0  0  0  0  0
  157.0327   41.7175  138.2530 N   0  0  0  0  0  0  0  0  0  0  0  0
  158.3810   41.4005  140.1166 N   0  0  0  0  0  0  0  0  0  0  0  0
  158.6161   40.8413  141.3221 C   0  0  0  0  0  0  0  0  0  0  0  0
  1  3  2  6  0  0  0
  1 32  1  0  0  0  0
  1  2  1  0  0  0  0
  1  4  1  0  0  0  0
  4  5  1  0  0  0  0
  6  5  1  6  0  0  0
  7  6  1  0  0  0  0
  8  6  1  0  0  0  0
  8 10  1  0  0  0  0
  8  9  1  1  0  0  0
 10 11  1  1  0  0  0
 12 13  1  6  0  0  0
 12  7  1  0  0  0  0
 12 10  1  0  0  0  0
 14 13  1  0  0  0  0
 15 16  1  0  0  0  0
 15 14  2  0  0  0  0
 16 23  2  0  0  0  0
 17 16  1  0  0  0  0
 17 19  1  0  0  0  0
 18 17  2  0  0  0  0
 19 20  2  0  0  0  0
 20 22  1  0  0  0  0
 20 21  1  0  0  0  0
 23 13  1  0  0  0  0
 23 22  1  0  0  0  0
 24 25  2  1  0  0  0
 24  9  1  0  0  0  0
 24 26  1  0  0  0  0
 27 28  1  0  0  0  0
 27 24  1  0  0  0  0
 29 30  1  6  0  0  0
 29 28  1  0  0  0  0
 31 32  1  6  0  0  0
 31 29  1  0  0  0  0
 33 34  1  6  0  0  0
 33 35  1  0  0  0  0
 33 31  1  0  0  0  0
 35 36  1  1  0  0  0
 35 30  1  0  0  0  0
 36 37  1  0  0  0  0
 38 37  2  0  0  0  0
 39 38  1  0  0  0  0
 40 41  2  0  0  0  0
 40 39  1  0  0  0  0
 42 40  1  0  0  0  0
 43 42  2  0  0  0  0
 43 45  1  0  0  0  0
 44 43  1  0  0  0  0
 45 46  1  0  0  0  0
 46 39  2  0  0  0  0
 46 36  1  0  0  0  0
M  END
>  <CHROM.1>
172.79270016,0.34984288,158.15236150,43.66203466,144.27213404,-2.04560627
0.68616125,-2.17607664

>  <Name>
lig.pdb

>  <RI>
0

>  <Rbt.Current_Directory>
/home/itssahil/PROJECTS/Mol_Feturizer/New_Systems/rnas/4yb0

>  <Rbt.Executable>
rbdock ($Id: //depot/dev/client3/rdock/2013.1/src/exe/rbdock.cxx#4 $)

>  <Rbt.Library>
libRbt.so (2013.1, Build901 2013/11/27)

>  <Rbt.Parameter_File>
/export/apps/rDock/src/rDock_2013.1_src/data/scripts/dock_solv.prm

>  <Rbt.Receptor>
prm/pocket_docking_4.prm

>  <SCORE>
-48.243

>  <SCORE.INTER>
-47.9149

>  <SCORE.INTER.CONST>
1

>  <SCORE.INTER.POLAR>
0

>  <SCORE.INTER.ROT>
2

>  <SCORE.INTER.SOLV>
27.8522

>  <SCORE.INTER.VDW>
-46.1607

>  <SCORE.INTER.norm>
-1.04163

>  <SCORE.INTRA>
-0.328118

>  <SCORE.INTRA.DIHEDRAL>
0.041984

>  <SCORE.INTRA.DIHEDRAL.0>
4.74153

>  <SCORE.INTRA.POLAR>
0

>  <SCORE.INTRA.POLAR.0>
0

>  <SCORE.INTRA.REPUL>
0

>  <SCORE.INTRA.REPUL.0>
0

>  <SCORE.INTRA.SOLV>
0.676449

>  <SCORE.INTRA.SOLV.lig_0>
-60.4375

>  <SCORE.INTRA.VDW>
-0.687334

>  <SCORE.INTRA.VDW.0>
-1.83689

>  <SCORE.INTRA.norm>
-0.00713299

>  <SCORE.RESTR>
0

>  <SCORE.RESTR.CAVITY>
0

>  <SCORE.RESTR.norm>
0

>  <SCORE.SYSTEM>
0

>  <SCORE.SYSTEM.CONST>
0

>  <SCORE.SYSTEM.DIHEDRAL>
0

>  <SCORE.SYSTEM.SOLV>
0

>  <SCORE.SYSTEM.norm>
0

>  <SCORE.heavy>
46

>  <SCORE.norm>
-1.04876

>  <RMSD>
2.097

$$$$
lig.pdb
 OpenBabel11021811523D
libRbt.so/2013.1/901 2013/11/27
 46 52  0  0  0  0  0  0  0  0999 V2000
  159.9686   46.0944  143.6233 P   0  0  2  0  0  0  0  0  0  0  0  0
  160.6194   47.4441  143.8341 O   0  0  0  0  0  0  0  0  0  0  0  0
  159.1332   45.9318  142.3797 O   0  0  0  0  0  0  0  0  0  0  0  0
  159.0741   45.6726  144.8909 O   0  0  0  0  0  0  0  0  0  0  0  0
  159.1123   46.4083  146.1068 C   0  0  0  0  0  0  0  0  0  0  0  0
  158.4998   45.5883  147.2302 C   0  0  1  0  0  0  0  0  0  0  0  0
  157.1948   46.0909  147.4802 O   0  0  0  0  0  0  0  0  0  0  0  0
  158.3361   44.1004  146.9470 C   0  0  1  0  0  0  0  0  0  0  0  0
  159.3444   43.3701  147.6300 O   0  0  0  0  0  0  0  0  0  0  0  0
  157.0039   43.7658  147.5797 C   0  0  1  0  0  0  0  0  0  0  0  0
  157.2035   43.3728  148.9390 O   0  0  0  0  0  0  0  0  0  0  0  0
  156.2339   45.0541  147.6077 C   0  0  2  0  0  0  0  0  0  0  0  0
  155.3251   45.1036  146.4378 N   0  0  0  0  0  0  0  0  0  0  0  0
  154.3774   44.1967  146.1432 C   0  0  0  0  0  0  0  0  0  0  0  0
  153.7358   44.5318  144.9981 N   0  0  0  0  0  0  0  0  0  0  0  0
  154.2741   45.6754  144.5383 C   0  0  0  0  0  0  0  0  0  0  0  0
  154.0583   46.5706  143.3773 C   0  0  0  0  0  0  0  0  0  0  0  0
  153.1781   46.3004  142.5251 O   0  0  0  0  0  0  0  0  0  0  0  0
  154.8331   47.6641  143.2750 N   0  0  0  0  0  0  0  0  0  0  0  0
  155.7775   47.9489  144.1915 C   0  0  0  0  0  0  0  0  0  0  0  0
  156.5243   49.0654  144.0401 N   0  0  0  0  0  0  0  0  0  0  0  0
  156.0263   47.1758  145.2728 N   0  0  0  0  0  0  0  0  0  0  0  0
  155.3206   46.0464  145.4958 C   0  0  0  0  0  0  0  0  0  0  0  0
  159.6529   41.8007  147.3509 P   0  0  2  0  0  0  0  0  0  0  0  0
  158.3571   41.0273  147.3848 O   0  0  0  0  0  0  0  0  0  0  0  0
  160.8061   41.4306  148.2646 O   0  0  0  0  0  0  0  0  0  0  0  0
  160.1675   41.8161  145.8198 O   0  0  0  0  0  0  0  0  0  0  0  0
  161.5114   42.1911  145.5202 C   0  0  0  0  0  0  0  0  0  0  0  0
  161.7112   42.6006  144.0577 C   0  0  1  0  0  0  0  0  0  0  0  0
  161.6732   41.4353  143.2311 O   0  0  0  0  0  0  0  0  0  0  0  0
  160.6645   43.5670  143.5076 C   0  0  1  0  0  0  0  0  0  0  0  0
  161.0817   44.9282  143.6031 O   0  0  0  0  0  0  0  0  0  0  0  0
  160.5419   43.1214  142.0624 C   0  0  1  0  0  0  0  0  0  0  0  0
  161.5198   43.7706  141.2451 O   0  0  0  0  0  0  0  0  0  0  0  0
  160.8654   41.6419  142.0693 C   0  0  2  0  0  0  0  0  0  0  0  0
  159.6120   40.8608  142.2143 N   0  0  0  0  0  0  0  0  0  0  0  0
  159.2869   40.0841  143.2667 C   0  0  0  0  0  0  0  0  0  0  0  0
  158.0634   39.5060  143.1121 N   0  0  0  0  0  0  0  0  0  0  0  0
  157.5757   39.9218  141.9324 C   0  0  0  0  0  0  0  0  0  0  0  0
  156.3403   39.6880  141.1421 C   0  0  0  0  0  0  0  0  0  0  0  0
  155.4120   38.9581  141.5515 O   0  0  0  0  0  0  0  0  0  0  0  0
  156.2339   40.3116  139.9675 N   0  0  0  0  0  0  0  0  0  0  0  0
  157.1995   41.1101  139.4869 C   0  0  0  0  0  0  0  0  0  0  0  0
  156.9935   41.6755  138.2881 N   0  0  0  0  0  0  0  0  0  0  0  0
  158.3559   41.3653  140.1425 N   0  0  0  0  0  0  0  0  0  0  0  0
  158.6004   40.8102  141.3480 C   0  0  0  0  0  0  0  0  0  0  0  0
  1  3  2  6  0  0  0
  1 32  1  0  0  0  0
  1  2  1  0  0  0  0
  1  4  1  0  0  0  0
  4  5  1  0  0  0  0
  6  5  1  6  0  0  0
  7  6  1  0  0  0  0
  8  6  1  0  0  0  0
  8 10  1  0  0  0  0
  8  9  1  1  0  0  0
 10 11  1  1  0  0  0
 12 13  1  6  0  0  0
 12  7  1  0  0  0  0
 12 10  1  0  0  0  0
 14 13  1  0  0  0  0
 15 16  1  0  0  0  0
 15 14  2  0  0  0  0
 16 23  2  0  0  0  0
 17 16  1  0  0  0  0
 17 19  1  0  0  0  0
 18 17  2  0  0  0  0
 19 20  2  0  0  0  0
 20 22  1  0  0  0  0
 20 21  1  0  0  0  0
 23 13  1  0  0  0  0
 23 22  1  0  0  0  0
 24 25  2  1  0  0  0
 24  9  1  0  0  0  0
 24 26  1  0  0  0  0
 27 28  1  0  0  0  0
 27 24  1  0  0  0  0
 29 30  1  6  0  0  0
 29 28  1  0  0  0  0
 31 32  1  6  0  0  0
 31 29  1  0  0  0  0
 33 34  1  6  0  0  0
 33 35  1  0  0  0  0
 33 31  1  0  0  0  0
 35 36  1  1  0  0  0
 35 30  1  0  0  0  0
 36 37  1  0  0  0  0
 38 37  2  0  0  0  0
 39 38  1  0  0  0  0
 40 41  2  0  0  0  0
 40 39  1  0  0  0  0
 42 40  1  0  0  0  0
 43 42  2  0  0  0  0
 43 45  1  0  0  0  0
 44 43  1  0  0  0  0
 45 46  1  0  0  0  0
 46 39  2  0  0  0  0
 46 36  1  0  0  0  0
M  END
>  <CHROM.1>
172.80918890,-0.00603976,158.14775299,43.65167307,144.27369965,-2.04450483
0.68275809,-2.18661252

>  <Name>
lig.pdb

>  <RI>
0

>  <Rbt.Current_Directory>
/home/itssahil/PROJECTS/Mol_Feturizer/New_Systems/rnas/4yb0

>  <Rbt.Executable>
rbdock ($Id: //depot/dev/client3/rdock/2013.1/src/exe/rbdock.cxx#4 $)

>  <Rbt.Library>
libRbt.so (2013.1, Build901 2013/11/27)

>  <Rbt.Parameter_File>
/export/apps/rDock/src/rDock_2013.1_src/data/scripts/dock_solv.prm

>  <Rbt.Receptor>
prm/pocket_docking_5.prm

>  <SCORE>
-48.3004

>  <SCORE.INTER>
-47.9725

>  <SCORE.INTER.CONST>
1

>  <SCORE.INTER.POLAR>
0

>  <SCORE.INTER.ROT>
2

>  <SCORE.INTER.SOLV>
27.852

>  <SCORE.INTER.VDW>
-46.199

>  <SCORE.INTER.norm>
-1.04288

>  <SCORE.INTRA>
-0.327831

>  <SCORE.INTRA.DIHEDRAL>
0.0409011

>  <SCORE.INTRA.DIHEDRAL.0>
4.74153

>  <SCORE.INTRA.POLAR>
0

>  <SCORE.INTRA.POLAR.0>
0

>  <SCORE.INTRA.REPUL>
0

>  <SCORE.INTRA.REPUL.0>
0

>  <SCORE.INTRA.SOLV>
0.675958

>  <SCORE.INTRA.SOLV.lig_0>
-60.4375

>  <SCORE.INTRA.VDW>
-0.686261

>  <SCORE.INTRA.VDW.0>
-1.83689

>  <SCORE.INTRA.norm>
-0.00712677

>  <SCORE.RESTR>
0

>  <SCORE.RESTR.CAVITY>
0

>  <SCORE.RESTR.norm>
0

>  <SCORE.SYSTEM>
0

>  <SCORE.SYSTEM.CONST>
0

>  <SCORE.SYSTEM.DIHEDRAL>
0

>  <SCORE.SYSTEM.SOLV>
0

>  <SCORE.SYSTEM.norm>
0

>  <SCORE.heavy>
46

>  <SCORE.norm>
-1.05001

>  <RMSD>
2.097

$$$$
lig.pdb
 OpenBabel11021811523D
libRbt.so/2013.1/901 2013/11/27
 46 52  0  0  0  0  0  0  0  0999 V2000
  159.9686   46.0411  143.6091 P   0  0  2  0  0  0  0  0  0  0  0  0
  160.6436   47.3764  143.8350 O   0  0  0  0  0  0  0  0  0  0  0  0
  159.1315   45.9072  142.3632 O   0  0  0  0  0  0  0  0  0  0  0  0
  159.0654   45.6218  144.8715 O   0  0  0  0  0  0  0  0  0  0  0  0
  159.1159   46.3435  146.0953 C   0  0  0  0  0  0  0  0  0  0  0  0
  158.4876   45.5226  147.2093 C   0  0  1  0  0  0  0  0  0  0  0  0
  157.1918   46.0461  147.4638 O   0  0  0  0  0  0  0  0  0  0  0  0
  158.2971   44.0411  146.9098 C   0  0  1  0  0  0  0  0  0  0  0  0
  159.2915   43.2852  147.5855 O   0  0  0  0  0  0  0  0  0  0  0  0
  156.9585   43.7239  147.5379 C   0  0  1  0  0  0  0  0  0  0  0  0
  157.1498   43.3126  148.8930 O   0  0  0  0  0  0  0  0  0  0  0  0
  156.2120   45.0256  147.5794 C   0  0  2  0  0  0  0  0  0  0  0  0
  155.3054   45.1043  146.4095 N   0  0  0  0  0  0  0  0  0  0  0  0
  154.3491   44.2121  146.0981 C   0  0  0  0  0  0  0  0  0  0  0  0
  153.7123   44.5733  144.9583 N   0  0  0  0  0  0  0  0  0  0  0  0
  154.2625   45.7191  144.5189 C   0  0  0  0  0  0  0  0  0  0  0  0
  154.0572   46.6364  143.3733 C   0  0  0  0  0  0  0  0  0  0  0  0
  153.1755   46.3897  142.5155 O   0  0  0  0  0  0  0  0  0  0  0  0
  154.8429   47.7237  143.2908 N   0  0  0  0  0  0  0  0  0  0  0  0
  155.7888   47.9832  144.2132 C   0  0  0  0  0  0  0  0  0  0  0  0
  156.5469   49.0948  144.0819 N   0  0  0  0  0  0  0  0  0  0  0  0
  156.0285   47.1892  145.2813 N   0  0  0  0  0  0  0  0  0  0  0  0
  155.3115   46.0632  145.4838 C   0  0  0  0  0  0  0  0  0  0  0  0
  159.5716   41.7136  147.2896 P   0  0  2  0  0  0  0  0  0  0  0  0
  158.2620   40.9635  147.3142 O   0  0  0  0  0  0  0  0  0  0  0  0
  160.7172   41.3127  148.2001 O   0  0  0  0  0  0  0  0  0  0  0  0
  160.0878   41.7362  145.7591 O   0  0  0  0  0  0  0  0  0  0  0  0
  161.4385   42.0900  145.4645 C   0  0  0  0  0  0  0  0  0  0  0  0
  161.6470   42.5117  144.0067 C   0  0  1  0  0  0  0  0  0  0  0  0
  161.5886   41.3563  143.1675 O   0  0  0  0  0  0  0  0  0  0  0  0
  160.6186   43.5028  143.4664 C   0  0  1  0  0  0  0  0  0  0  0  0
  161.0603   44.8551  143.5770 O   0  0  0  0  0  0  0  0  0  0  0  0
  160.4891   43.0752  142.0164 C   0  0  1  0  0  0  0  0  0  0  0  0
  161.4794   43.7153  141.2068 O   0  0  0  0  0  0  0  0  0  0  0  0
  160.7857   41.5901  142.0074 C   0  0  2  0  0  0  0  0  0  0  0  0
  159.5182   40.8304  142.1431 N   0  0  0  0  0  0  0  0  0  0  0  0
  159.1694   40.0646  143.1959 C   0  0  0  0  0  0  0  0  0  0  0  0
  157.9382   39.5058  143.0312 N   0  0  0  0  0  0  0  0  0  0  0  0
  157.4699   39.9234  141.8444 C   0  0  0  0  0  0  0  0  0  0  0  0
  156.2391   39.7058  141.0422 C   0  0  0  0  0  0  0  0  0  0  0  0
  155.2948   38.9932  141.4454 O   0  0  0  0  0  0  0  0  0  0  0  0
  156.1553   40.3248  139.8635 N   0  0  0  0  0  0  0  0  0  0  0  0
  157.1388   41.1049  139.3891 C   0  0  0  0  0  0  0  0  0  0  0  0
  156.9548   41.6674  138.1853 N   0  0  0  0  0  0  0  0  0  0  0  0
  158.2924   41.3446  140.0556 N   0  0  0  0  0  0  0  0  0  0  0  0
  158.5150   40.7918  141.2664 C   0  0  0  0  0  0  0  0  0  0  0  0
  1  3  2  6  0  0  0
  1 32  1  0  0  0  0
  1  2  1  0  0  0  0
  1  4  1  0  0  0  0
  4  5  1  0  0  0  0
  6  5  1  6  0  0  0
  7  6  1  0  0  0  0
  8  6  1  0  0  0  0
  8 10  1  0  0  0  0
  8  9  1  1  0  0  0
 10 11  1  1  0  0  0
 12 13  1  6  0  0  0
 12  7  1  0  0  0  0
 12 10  1  0  0  0  0
 14 13  1  0  0  0  0
 15 16  1  0  0  0  0
 15 14  2  0  0  0  0
 16 23  2  0  0  0  0
 17 16  1  0  0  0  0
 17 19  1  0  0  0  0
 18 17  2  0  0  0  0
 19 20  2  0  0  0  0
 20 22  1  0  0  0  0
 20 21  1  0  0  0  0
 23 13  1  0  0  0  0
 23 22  1  0  0  0  0
 24 25  2  1  0  0  0
 24  9  1  0  0  0  0
 24 26  1  0  0  0  0
 27 28  1  0  0  0  0
 27 24  1  0  0  0  0
 29 30  1  6  0  0  0
 29 28  1  0  0  0  0
 31 32  1  6  0  0  0
 31 29  1  0  0  0  0
 33 34  1  6  0  0  0
 33 35  1  0  0  0  0
 33 31  1  0  0  0  0
 35 36  1  1  0  0  0
 35 30  1  0  0  0  0
 36 37  1  0  0  0  0
 38 37  2  0  0  0  0
 39 38  1  0  0  0  0
 40 41  2  0  0  0  0
 40 39  1  0  0  0  0
 42 40  1  0  0  0  0
 43 42  2  0  0  0  0
 43 45  1  0  0  0  0
 44 43  1  0  0  0  0
 45 46  1  0  0  0  0
 46 39  2  0  0  0  0
 46 36  1  0  0  0  0
M  END
>  <CHROM.1>
172.21058211,1.07038559,158.10337375,43.62209078,144.23075572,-2.02821371
0.69732234,-2.18515410

>  <Name>
lig.pdb

>  <RI>
0

>  <Rbt.Current_Directory>
/home/itssahil/PROJECTS/Mol_Feturizer/New_Systems/rnas/4yb0

>  <Rbt.Executable>
rbdock ($Id: //depot/dev/client3/rdock/2013.1/src/exe/rbdock.cxx#4 $)

>  <Rbt.Library>
libRbt.so (2013.1, Build901 2013/11/27)

>  <Rbt.Parameter_File>
/export/apps/rDock/src/rDock_2013.1_src/data/scripts/dock_solv.prm

>  <Rbt.Receptor>
prm/pocket_docking_8.prm

>  <SCORE>
-48.3213

>  <SCORE.INTER>
-47.9991

>  <SCORE.INTER.CONST>
1

>  <SCORE.INTER.POLAR>
0

>  <SCORE.INTER.ROT>
2

>  <SCORE.INTER.SOLV>
28.5482

>  <SCORE.INTER.VDW>
-46.4488

>  <SCORE.INTER.norm>
-1.04346

>  <SCORE.INTRA>
-0.322167

>  <SCORE.INTRA.DIHEDRAL>
0.0429517

>  <SCORE.INTRA.DIHEDRAL.0>
4.74153

>  <SCORE.INTRA.POLAR>
0

>  <SCORE.INTRA.POLAR.0>
0

>  <SCORE.INTRA.REPUL>
0

>  <SCORE.INTRA.REPUL.0>
0

>  <SCORE.INTRA.SOLV>
0.642485

>  <SCORE.INTRA.SOLV.lig_0>
-60.4375

>  <SCORE.INTRA.VDW>
-0.664885

>  <SCORE.INTRA.VDW.0>
-1.83689

>  <SCORE.INTRA.norm>
-0.00700363

>  <SCORE.RESTR>
0

>  <SCORE.RESTR.CAVITY>
0

>  <SCORE.RESTR.norm>
0

>  <SCORE.SYSTEM>
0

>  <SCORE.SYSTEM.CONST>
0

>  <SCORE.SYSTEM.DIHEDRAL>
0

>  <SCORE.SYSTEM.SOLV>
0

>  <SCORE.SYSTEM.norm>
0

>  <SCORE.heavy>
46

>  <SCORE.norm>
-1.05046

>  <RMSD>
2.098

$$$$
lig.pdb
 OpenBabel11021811523D
libRbt.so/2013.1/901 2013/11/27
 46 52  0  0  0  0  0  0  0  0999 V2000
  159.8232   46.0595  143.6499 P   0  0  2  0  0  0  0  0  0  0  0  0
  160.4665   47.4096  143.8802 O   0  0  0  0  0  0  0  0  0  0  0  0
  158.9738   45.9157  142.4134 O   0  0  0  0  0  0  0  0  0  0  0  0
  158.9475   45.6051  144.9194 O   0  0  0  0  0  0  0  0  0  0  0  0
  158.9952   46.3163  146.1494 C   0  0  0  0  0  0  0  0  0  0  0  0
  158.4027   45.4689  147.2633 C   0  0  1  0  0  0  0  0  0  0  0  0
  157.0972   45.9563  147.5392 O   0  0  0  0  0  0  0  0  0  0  0  0
  158.2466   43.9858  146.9518 C   0  0  1  0  0  0  0  0  0  0  0  0
  159.2688   43.2497  147.6074 O   0  0  0  0  0  0  0  0  0  0  0  0
  156.9249   43.6282  147.5937 C   0  0  1  0  0  0  0  0  0  0  0  0
  157.1442   43.2092  148.9421 O   0  0  0  0  0  0  0  0  0  0  0  0
  156.1457   44.9097  147.6573 C   0  0  2  0  0  0  0  0  0  0  0  0
  155.2223   44.9759  146.4998 N   0  0  0  0  0  0  0  0  0  0  0  0
  154.0561   44.3162  146.3893 C   0  0  0  0  0  0  0  0  0  0  0  0
  153.4662   44.5855  145.1999 N   0  0  0  0  0  0  0  0  0  0  0  0
  154.2607   45.4342  144.5236 C   0  0  0  0  0  0  0  0  0  0  0  0
  154.2271   46.1160  143.2083 C   0  0  0  0  0  0  0  0  0  0  0  0
  153.2640   45.9331  142.4255 O   0  0  0  0  0  0  0  0  0  0  0  0
  155.2550   46.9224  142.8926 N   0  0  0  0  0  0  0  0  0  0  0  0
  156.2872   47.1141  143.7357 C   0  0  0  0  0  0  0  0  0  0  0  0
  157.2915   47.9404  143.3673 N   0  0  0  0  0  0  0  0  0  0  0  0
  156.3804   46.5237  144.9488 N   0  0  0  0  0  0  0  0  0  0  0  0
  155.4161   45.6880  145.3899 C   0  0  0  0  0  0  0  0  0  0  0  0
  159.5855   41.6887  147.2927 P   0  0  2  0  0  0  0  0  0  0  0  0
  158.2961   40.9048  147.3266 O   0  0  0  0  0  0  0  0  0  0  0  0
  160.7526   41.3090  148.1846 O   0  0  0  0  0  0  0  0  0  0  0  0
  160.0811   41.7391  145.7561 O   0  0  0  0  0  0  0  0  0  0  0  0
  161.4183   42.1304  145.4479 C   0  0  0  0  0  0  0  0  0  0  0  0
  161.5971   42.5712  143.9917 C   0  0  1  0  0  0  0  0  0  0  0  0
  161.5576   41.4226  143.1420 O   0  0  0  0  0  0  0  0  0  0  0  0
  160.5365   43.5403  143.4741 C   0  0  1  0  0  0  0  0  0  0  0  0
  160.9446   44.9026  143.5923 O   0  0  0  0  0  0  0  0  0  0  0  0
  160.3994   43.1232  142.0218 C   0  0  1  0  0  0  0  0  0  0  0  0
  161.3623   43.7964  141.2060 O   0  0  0  0  0  0  0  0  0  0  0  0
  160.7340   41.6465  141.9946 C   0  0  2  0  0  0  0  0  0  0  0  0
  159.4883   40.8530  142.1388 N   0  0  0  0  0  0  0  0  0  0  0  0
  159.1586   40.0937  143.2025 C   0  0  0  0  0  0  0  0  0  0  0  0
  157.9444   39.4974  143.0435 N   0  0  0  0  0  0  0  0  0  0  0  0
  157.4677   39.8832  141.8493 C   0  0  0  0  0  0  0  0  0  0  0  0
  156.2459   39.6182  141.0475 C   0  0  0  0  0  0  0  0  0  0  0  0
  155.3212   38.8852  141.4594 O   0  0  0  0  0  0  0  0  0  0  0  0
  156.1478   40.2165  139.8592 N   0  0  0  0  0  0  0  0  0  0  0  0
  157.1100   41.0170  139.3752 C   0  0  0  0  0  0  0  0  0  0  0  0
  156.9134   41.5555  138.1625 N   0  0  0  0  0  0  0  0  0  0  0  0
  158.2543   41.2999  140.0407 N   0  0  0  0  0  0  0  0  0  0  0  0
  158.4892   40.7723  141.2605 C   0  0  0  0  0  0  0  0  0  0  0  0
  1  3  2  6  0  0  0
  1 32  1  0  0  0  0
  1  2  1  0  0  0  0
  1  4  1  0  0  0  0
  4  5  1  0  0  0  0
  6  5  1  6  0  0  0
  7  6  1  0  0  0  0
  8  6  1  0  0  0  0
  8 10  1  0  0  0  0
  8  9  1  1  0  0  0
 10 11  1  1  0  0  0
 12 13  1  6  0  0  0
 12  7  1  0  0  0  0
 12 10  1  0  0  0  0
 14 13  1  0  0  0  0
 15 16  1  0  0  0  0
 15 14  2  0  0  0  0
 16 23  2  0  0  0  0
 17 16  1  0  0  0  0
 17 19  1  0  0  0  0
 18 17  2  0  0  0  0
 19 20  2  0  0  0  0
 20 22  1  0  0  0  0
 20 21  1  0  0  0  0
 23 13  1  0  0  0  0
 23 22  1  0  0  0  0
 24 25  2  1  0  0  0
 24  9  1  0  0  0  0
 24 26  1  0  0  0  0
 27 28  1  0  0  0  0
 27 24  1  0  0  0  0
 29 30  1  6  0  0  0
 29 28  1  0  0  0  0
 31 32  1  6  0  0  0
 31 29  1  0  0  0  0
 33 34  1  6  0  0  0
 33 35  1  0  0  0  0
 33 31  1  0  0  0  0
 35 36  1  1  0  0  0
 35 30  1  0  0  0  0
 36 37  1  0  0  0  0
 38 37  2  0  0  0  0
 39 38  1  0  0  0  0
 40 41  2  0  0  0  0
 40 39  1  0  0  0  0
 42 40  1  0  0  0  0
 43 42  2  0  0  0  0
 43 45  1  0  0  0  0
 44 43  1  0  0  0  0
 45 46  1  0  0  0  0
 46 39  2  0  0  0  0
 46 36  1  0  0  0  0
M  END
>  <CHROM.1>
-166.96158611,2.75850377,158.09811820,43.50559205,144.21126036,-1.85262236
0.66019720,-2.14483415

>  <Name>
lig.pdb

>  <RI>
0

>  <Rbt.Current_Directory>
/home/itssahil/PROJECTS/Mol_Feturizer/New_Systems/rnas/4yb0

>  <Rbt.Executable>
rbdock ($Id: //depot/dev/client3/rdock/2013.1/src/exe/rbdock.cxx#4 $)

>  <Rbt.Library>
libRbt.so (2013.1, Build901 2013/11/27)

>  <Rbt.Parameter_File>
/export/apps/rDock/src/rDock_2013.1_src/data/scripts/dock_solv.prm

>  <Rbt.Receptor>
prm/pocket_docking_2.prm

>  <SCORE>
-45.0724

>  <SCORE.INTER>
-47.6517

>  <SCORE.INTER.CONST>
1

>  <SCORE.INTER.POLAR>
0

>  <SCORE.INTER.ROT>
2

>  <SCORE.INTER.SOLV>
27.6264

>  <SCORE.INTER.VDW>
-45.9099

>  <SCORE.INTER.norm>
-1.03591

>  <SCORE.INTRA>
0.241729

>  <SCORE.INTRA.DIHEDRAL>
0.0951689

>  <SCORE.INTRA.DIHEDRAL.0>
4.74153

>  <SCORE.INTRA.POLAR>
0

>  <SCORE.INTRA.POLAR.0>
0

>  <SCORE.INTRA.REPUL>
0

>  <SCORE.INTRA.REPUL.0>
0

>  <SCORE.INTRA.SOLV>
3.60671

>  <SCORE.INTRA.SOLV.lig_0>
-60.4375

>  <SCORE.INTRA.VDW>
-1.60921

>  <SCORE.INTRA.VDW.0>
-1.83689

>  <SCORE.INTRA.norm>
0.00525497

>  <SCORE.RESTR>
2.33756

>  <SCORE.RESTR.CAVITY>
2.33756

>  <SCORE.RESTR.norm>
0.0508165

>  <SCORE.SYSTEM>
0

>  <SCORE.SYSTEM.CONST>
0

>  <SCORE.SYSTEM.DIHEDRAL>
0

>  <SCORE.SYSTEM.SOLV>
0

>  <SCORE.SYSTEM.norm>
0

>  <SCORE.heavy>
46

>  <SCORE.norm>
-0.979835

>  <RMSD>
2.099

$$$$
lig.pdb
 OpenBabel11021811523D
libRbt.so/2013.1/901 2013/11/27
 46 52  0  0  0  0  0  0  0  0999 V2000
  159.9928   46.0823  143.6338 P   0  0  2  0  0  0  0  0  0  0  0  0
  160.6521   47.4257  143.8578 O   0  0  0  0  0  0  0  0  0  0  0  0
  159.1600   45.9359  142.3863 O   0  0  0  0  0  0  0  0  0  0  0  0
  159.0917   45.6558  144.8952 O   0  0  0  0  0  0  0  0  0  0  0  0
  159.1314   46.3810  146.1173 C   0  0  0  0  0  0  0  0  0  0  0  0
  158.5100   45.5557  147.2320 C   0  0  1  0  0  0  0  0  0  0  0  0
  157.2078   46.0651  147.4824 O   0  0  0  0  0  0  0  0  0  0  0  0
  158.3371   44.0714  146.9358 C   0  0  1  0  0  0  0  0  0  0  0  0
  159.3385   43.3286  147.6154 O   0  0  0  0  0  0  0  0  0  0  0  0
  157.0008   43.7406  147.5617 C   0  0  1  0  0  0  0  0  0  0  0  0
  157.1938   43.3347  148.9182 O   0  0  0  0  0  0  0  0  0  0  0  0
  156.2395   45.0338  147.5984 C   0  0  2  0  0  0  0  0  0  0  0  0
  155.3345   45.0993  146.4264 N   0  0  0  0  0  0  0  0  0  0  0  0
  154.3900   44.1948  146.1144 C   0  0  0  0  0  0  0  0  0  0  0  0
  153.7514   44.5462  144.9726 N   0  0  0  0  0  0  0  0  0  0  0  0
  154.2884   45.6981  144.5325 C   0  0  0  0  0  0  0  0  0  0  0  0
  154.0742   46.6109  143.3849 C   0  0  0  0  0  0  0  0  0  0  0  0
  153.1976   46.3518  142.5256 O   0  0  0  0  0  0  0  0  0  0  0  0
  154.8466   47.7077  143.3023 N   0  0  0  0  0  0  0  0  0  0  0  0
  155.7872   47.9804  144.2264 C   0  0  0  0  0  0  0  0  0  0  0  0
  156.5317   49.1011  144.0950 N   0  0  0  0  0  0  0  0  0  0  0  0
  156.0343   47.1912  145.2963 N   0  0  0  0  0  0  0  0  0  0  0  0
  155.3308   46.0568  145.4992 C   0  0  0  0  0  0  0  0  0  0  0  0
  159.6371   41.7595  147.3240 P   0  0  2  0  0  0  0  0  0  0  0  0
  158.3361   40.9947  147.3476 O   0  0  0  0  0  0  0  0  0  0  0  0
  160.7852   41.3739  148.2378 O   0  0  0  0  0  0  0  0  0  0  0  0
  160.1563   41.7843  145.7945 O   0  0  0  0  0  0  0  0  0  0  0  0
  161.5036   42.1527  145.5019 C   0  0  0  0  0  0  0  0  0  0  0  0
  161.7104   42.5732  144.0435 C   0  0  1  0  0  0  0  0  0  0  0  0
  161.6670   41.4151  143.2070 O   0  0  0  0  0  0  0  0  0  0  0  0
  160.6719   43.5512  143.4986 C   0  0  1  0  0  0  0  0  0  0  0  0
  161.0980   44.9088  143.6068 O   0  0  0  0  0  0  0  0  0  0  0  0
  160.5505   43.1187  142.0494 C   0  0  1  0  0  0  0  0  0  0  0  0
  161.5352   43.7681  141.2404 O   0  0  0  0  0  0  0  0  0  0  0  0
  160.8640   41.6371  142.0447 C   0  0  2  0  0  0  0  0  0  0  0  0
  159.6049   40.8633  142.1795 N   0  0  0  0  0  0  0  0  0  0  0  0
  159.2719   40.0794  143.2240 C   0  0  0  0  0  0  0  0  0  0  0  0
  158.0447   39.5111  143.0611 N   0  0  0  0  0  0  0  0  0  0  0  0
  157.5630   39.9409  141.8840 C   0  0  0  0  0  0  0  0  0  0  0  0
  156.3280   39.7227  141.0885 C   0  0  0  0  0  0  0  0  0  0  0  0
  155.3937   38.9955  141.4890 O   0  0  0  0  0  0  0  0  0  0  0  0
  156.2289   40.3576  139.9194 N   0  0  0  0  0  0  0  0  0  0  0  0
  157.2011   41.1537  139.4484 C   0  0  0  0  0  0  0  0  0  0  0  0
  157.0021   41.7314  138.2543 N   0  0  0  0  0  0  0  0  0  0  0  0
  158.3576   41.3951  140.1092 N   0  0  0  0  0  0  0  0  0  0  0  0
  158.5952   40.8275  141.3103 C   0  0  0  0  0  0  0  0  0  0  0  0
  1  3  2  6  0  0  0
  1 32  1  0  0  0  0
  1  2  1  0  0  0  0
  1  4  1  0  0  0  0
  4  5  1  0  0  0  0
  6  5  1  6  0  0  0
  7  6  1  0  0  0  0
  8  6  1  0  0  0  0
  8 10  1  0  0  0  0
  8  9  1  1  0  0  0
 10 11  1  1  0  0  0
 12 13  1  6  0  0  0
 12  7  1  0  0  0  0
 12 10  1  0  0  0  0
 14 13  1  0  0  0  0
 15 16  1  0  0  0  0
 15 14  2  0  0  0  0
 16 23  2  0  0  0  0
 17 16  1  0  0  0  0
 17 19  1  0  0  0  0
 18 17  2  0  0  0  0
 19 20  2  0  0  0  0
 20 22  1  0  0  0  0
 20 21  1  0  0  0  0
 23 13  1  0  0  0  0
 23 22  1  0  0  0  0
 24 25  2  1  0  0  0
 24  9  1  0  0  0  0
 24 26  1  0  0  0  0
 27 28  1  0  0  0  0
 27 24  1  0  0  0  0
 29 30  1  6  0  0  0
 29 28  1  0  0  0  0
 31 32  1  6  0  0  0
 31 29  1  0  0  0  0
 33 34  1  6  0  0  0
 33 35  1  0  0  0  0
 33 31  1  0  0  0  0
 35 36  1  1  0  0  0
 35 30  1  0  0  0  0
 36 37  1  0  0  0  0
 38 37  2  0  0  0  0
 39 38  1  0  0  0  0
 40 41  2  0  0  0  0
 40 39  1  0  0  0  0
 42 40  1  0  0  0  0
 43 42  2  0  0  0  0
 43 45  1  0  0  0  0
 44 43  1  0  0  0  0
 45 46  1  0  0  0  0
 46 39  2  0  0  0  0
 46 36  1  0  0  0  0
M  END
>  <CHROM.1>
172.13697540,-0.04676789,158.15104086,43.64868664,144.26028821,-2.04757232
0.68895501,-2.18002470

>  <Name>
lig.pdb

>  <RI>
0

>  <Rbt.Current_Directory>
/home/itssahil/PROJECTS/Mol_Feturizer/New_Systems/rnas/4yb0

>  <Rbt.Executable>
rbdock ($Id: //depot/dev/client3/rdock/2013.1/src/exe/rbdock.cxx#4 $)

>  <Rbt.Library>
libRbt.so (2013.1, Build901 2013/11/27)

>  <Rbt.Parameter_File>
/export/apps/rDock/src/rDock_2013.1_src/data/scripts/dock_solv.prm

>  <Rbt.Receptor>
prm/pocket_docking_6.prm

>  <SCORE>
-48.2317

>  <SCORE.INTER>
-47.9119

>  <SCORE.INTER.CONST>
1

>  <SCORE.INTER.POLAR>
0

>  <SCORE.INTER.ROT>
2

>  <SCORE.INTER.SOLV>
28.0431

>  <SCORE.INTER.VDW>
-46.2223

>  <SCORE.INTER.norm>
-1.04156

>  <SCORE.INTRA>
-0.3198

>  <SCORE.INTRA.DIHEDRAL>
0.039273

>  <SCORE.INTRA.DIHEDRAL.0>
4.74153

>  <SCORE.INTRA.POLAR>
0

>  <SCORE.INTRA.POLAR.0>
0

>  <SCORE.INTRA.REPUL>
0

>  <SCORE.INTRA.REPUL.0>
0

>  <SCORE.INTRA.SOLV>
0.633066

>  <SCORE.INTRA.SOLV.lig_0>
-60.4375

>  <SCORE.INTRA.VDW>
-0.65597

>  <SCORE.INTRA.VDW.0>
-1.83689

>  <SCORE.INTRA.norm>
-0.00695218

>  <SCORE.RESTR>
0

>  <SCORE.RESTR.CAVITY>
0

>  <SCORE.RESTR.norm>
0

>  <SCORE.SYSTEM>
0

>  <SCORE.SYSTEM.CONST>
0

>  <SCORE.SYSTEM.DIHEDRAL>
0

>  <SCORE.SYSTEM.SOLV>
0

>  <SCORE.SYSTEM.norm>
0

>  <SCORE.heavy>
46

>  <SCORE.norm>
-1.04852

>  <RMSD>
2.101

$$$$
lig.pdb
 OpenBabel11021811523D
libRbt.so/2013.1/901 2013/11/27
 46 52  0  0  0  0  0  0  0  0999 V2000
  159.8950   45.9860  143.5859 P   0  0  2  0  0  0  0  0  0  0  0  0
  160.5537   47.3329  143.7895 O   0  0  0  0  0  0  0  0  0  0  0  0
  159.0410   45.8286  142.3542 O   0  0  0  0  0  0  0  0  0  0  0  0
  159.0172   45.5653  144.8656 O   0  0  0  0  0  0  0  0  0  0  0  0
  159.0758   46.2988  146.0820 C   0  0  0  0  0  0  0  0  0  0  0  0
  158.4765   45.4791  147.2128 C   0  0  1  0  0  0  0  0  0  0  0  0
  157.1772   45.9861  147.4824 O   0  0  0  0  0  0  0  0  0  0  0  0
  158.3031   43.9923  146.9295 C   0  0  1  0  0  0  0  0  0  0  0  0
  159.3185   43.2571  147.5966 O   0  0  0  0  0  0  0  0  0  0  0  0
  156.9790   43.6616  147.5808 C   0  0  1  0  0  0  0  0  0  0  0  0
  157.1968   43.2655  148.9364 O   0  0  0  0  0  0  0  0  0  0  0  0
  156.2143   44.9527  147.6221 C   0  0  2  0  0  0  0  0  0  0  0  0
  155.2889   45.0075  146.4656 N   0  0  0  0  0  0  0  0  0  0  0  0
  154.1029   44.3802  146.3809 C   0  0  0  0  0  0  0  0  0  0  0  0
  153.5169   44.6268  145.1846 N   0  0  0  0  0  0  0  0  0  0  0  0
  154.3342   45.4274  144.4776 C   0  0  0  0  0  0  0  0  0  0  0  0
  154.3164   46.0648  143.1399 C   0  0  0  0  0  0  0  0  0  0  0  0
  153.3451   45.8848  142.3664 O   0  0  0  0  0  0  0  0  0  0  0  0
  155.3670   46.8284  142.7940 N   0  0  0  0  0  0  0  0  0  0  0  0
  156.4077   47.0171  143.6273 C   0  0  0  0  0  0  0  0  0  0  0  0
  157.4352   47.7995  143.2281 N   0  0  0  0  0  0  0  0  0  0  0  0
  156.4876   46.4658  144.8595 N   0  0  0  0  0  0  0  0  0  0  0  0
  155.5001   45.6752  145.3315 C   0  0  0  0  0  0  0  0  0  0  0  0
  159.6170   41.6870  147.3105 P   0  0  2  0  0  0  0  0  0  0  0  0
  158.3191   40.9184  147.3618 O   0  0  0  0  0  0  0  0  0  0  0  0
  160.7820   41.3111  148.2068 O   0  0  0  0  0  0  0  0  0  0  0  0
  160.1095   41.7031  145.7722 O   0  0  0  0  0  0  0  0  0  0  0  0
  161.4503   42.0736  145.4538 C   0  0  0  0  0  0  0  0  0  0  0  0
  161.6305   42.4850  143.9892 C   0  0  1  0  0  0  0  0  0  0  0  0
  161.5763   41.3212  143.1613 O   0  0  0  0  0  0  0  0  0  0  0  0
  160.5796   43.4562  143.4559 C   0  0  1  0  0  0  0  0  0  0  0  0
  161.0032   44.8157  143.5476 O   0  0  0  0  0  0  0  0  0  0  0  0
  160.4345   43.0135  142.0119 C   0  0  1  0  0  0  0  0  0  0  0  0
  161.4029   43.6604  141.1816 O   0  0  0  0  0  0  0  0  0  0  0  0
  160.7525   41.5328  142.0116 C   0  0  2  0  0  0  0  0  0  0  0  0
  159.4984   40.7562  142.1734 N   0  0  0  0  0  0  0  0  0  0  0  0
  159.1718   40.0042  143.2432 C   0  0  0  0  0  0  0  0  0  0  0  0
  157.9480   39.4236  143.1008 N   0  0  0  0  0  0  0  0  0  0  0  0
  157.4618   39.8123  141.9114 C   0  0  0  0  0  0  0  0  0  0  0  0
  156.2269   39.5611  141.1255 C   0  0  0  0  0  0  0  0  0  0  0  0
  155.2977   38.8415  141.5507 O   0  0  0  0  0  0  0  0  0  0  0  0
  156.1221   40.1574  139.9367 N   0  0  0  0  0  0  0  0  0  0  0  0
  157.0886   40.9439  139.4387 C   0  0  0  0  0  0  0  0  0  0  0  0
  156.8842   41.4816  138.2269 N   0  0  0  0  0  0  0  0  0  0  0  0
  158.2446   41.2135  140.0893 N   0  0  0  0  0  0  0  0  0  0  0  0
  158.4876   40.6862  141.3076 C   0  0  0  0  0  0  0  0  0  0  0  0
  1  3  2  6  0  0  0
  1 32  1  0  0  0  0
  1  2  1  0  0  0  0
  1  4  1  0  0  0  0
  4  5  1  0  0  0  0
  6  5  1  6  0  0  0
  7  6  1  0  0  0  0
  8  6  1  0  0  0  0
  8 10  1  0  0  0  0
  8  9  1  1  0  0  0
 10 11  1  1  0  0  0
 12 13  1  6  0  0  0
 12  7  1  0  0  0  0
 12 10  1  0  0  0  0
 14 13  1  0  0  0  0
 15 16  1  0  0  0  0
 15 14  2  0  0  0  0
 16 23  2  0  0  0  0
 17 16  1  0  0  0  0
 17 19  1  0  0  0  0
 18 17  2  0  0  0  0
 19 20  2  0  0  0  0
 20 22  1  0  0  0  0
 20 21  1  0  0  0  0
 23 13  1  0  0  0  0
 23 22  1  0  0  0  0
 24 25  2  1  0  0  0
 24  9  1  0  0  0  0
 24 26  1  0  0  0  0
 27 28  1  0  0  0  0
 27 24  1  0  0  0  0
 29 30  1  6  0  0  0
 29 28  1  0  0  0  0
 31 32  1  6  0  0  0
 31 29  1  0  0  0  0
 33 34  1  6  0  0  0
 33 35  1  0  0  0  0
 33 31  1  0  0  0  0
 35 36  1  1  0  0  0
 35 30  1  0  0  0  0
 36 37  1  0  0  0  0
 38 37  2  0  0  0  0
 39 38  1  0  0  0  0
 40 41  2  0  0  0  0
 40 39  1  0  0  0  0
 42 40  1  0  0  0  0
 43 42  2  0  0  0  0
 43 45  1  0  0  0  0
 44 43  1  0  0  0  0
 45 46  1  0  0  0  0
 46 39  2  0  0  0  0
 46 36  1  0  0  0  0
M  END
>  <CHROM.1>
-165.55207902,1.67633614,158.14367883,43.46095613,144.19826218,-1.83309767
0.66381855,-2.16598088

>  <Name>
lig.pdb

>  <RI>
0

>  <Rbt.Current_Directory>
/home/itssahil/PROJECTS/Mol_Feturizer/New_Systems/rnas/4yb0

>  <Rbt.Executable>
rbdock ($Id: //depot/dev/client3/rdock/2013.1/src/exe/rbdock.cxx#4 $)

>  <Rbt.Library>
libRbt.so (2013.1, Build901 2013/11/27)

>  <Rbt.Parameter_File>
/export/apps/rDock/src/rDock_2013.1_src/data/scripts/dock_solv.prm

>  <Rbt.Receptor>
prm/pocket_docking_3.prm

>  <SCORE>
-47.3185

>  <SCORE.INTER>
-47.8649

>  <SCORE.INTER.CONST>
1

>  <SCORE.INTER.POLAR>
0

>  <SCORE.INTER.ROT>
2

>  <SCORE.INTER.SOLV>
27.8445

>  <SCORE.INTER.VDW>
-46.1248

>  <SCORE.INTER.norm>
-1.04054

>  <SCORE.INTRA>
0.506401

>  <SCORE.INTRA.DIHEDRAL>
0.0942748

>  <SCORE.INTRA.DIHEDRAL.0>
4.74153

>  <SCORE.INTRA.POLAR>
0

>  <SCORE.INTRA.POLAR.0>
0

>  <SCORE.INTRA.REPUL>
0

>  <SCORE.INTRA.REPUL.0>
0

>  <SCORE.INTRA.SOLV>
3.77974

>  <SCORE.INTRA.SOLV.lig_0>
-60.4375

>  <SCORE.INTRA.VDW>
-1.4306

>  <SCORE.INTRA.VDW.0>
-1.83689

>  <SCORE.INTRA.norm>
0.0110087

>  <SCORE.RESTR>
0.0400138

>  <SCORE.RESTR.CAVITY>
0.0400138

>  <SCORE.RESTR.norm>
0.000869866

>  <SCORE.SYSTEM>
0

>  <SCORE.SYSTEM.CONST>
0

>  <SCORE.SYSTEM.DIHEDRAL>
0

>  <SCORE.SYSTEM.SOLV>
0

>  <SCORE.SYSTEM.norm>
0

>  <SCORE.heavy>
46

>  <SCORE.norm>
-1.02866

>  <RMSD>
2.124

$$$$
lig.pdb
 OpenBabel11021811523D
libRbt.so/2013.1/901 2013/11/27
 46 52  0  0  0  0  0  0  0  0999 V2000
  159.9137   46.0986  143.6347 P   0  0  2  0  0  0  0  0  0  0  0  0
  160.5666   47.4466  143.8497 O   0  0  0  0  0  0  0  0  0  0  0  0
  159.0534   45.9508  142.4062 O   0  0  0  0  0  0  0  0  0  0  0  0
  159.0456   45.6588  144.9146 O   0  0  0  0  0  0  0  0  0  0  0  0
  159.1074   46.3788  146.1389 C   0  0  0  0  0  0  0  0  0  0  0  0
  158.5190   45.5432  147.2637 C   0  0  1  0  0  0  0  0  0  0  0  0
  157.2186   46.0403  147.5465 O   0  0  0  0  0  0  0  0  0  0  0  0
  158.3517   44.0588  146.9645 C   0  0  1  0  0  0  0  0  0  0  0  0
  159.3748   43.3215  147.6174 O   0  0  0  0  0  0  0  0  0  0  0  0
  157.0331   43.7138  147.6197 C   0  0  1  0  0  0  0  0  0  0  0  0
  157.2608   43.3035  148.9694 O   0  0  0  0  0  0  0  0  0  0  0  0
  156.2620   45.0003  147.6800 C   0  0  2  0  0  0  0  0  0  0  0  0
  155.3296   45.0634  146.5296 N   0  0  0  0  0  0  0  0  0  0  0  0
  154.2133   44.3284  146.3847 C   0  0  0  0  0  0  0  0  0  0  0  0
  153.5988   44.6197  145.2130 N   0  0  0  0  0  0  0  0  0  0  0  0
  154.3264   45.5594  144.5834 C   0  0  0  0  0  0  0  0  0  0  0  0
  154.2364   46.3083  143.3079 C   0  0  0  0  0  0  0  0  0  0  0  0
  153.2844   46.0999  142.5178 O   0  0  0  0  0  0  0  0  0  0  0  0
  155.2018   47.2029  143.0355 N   0  0  0  0  0  0  0  0  0  0  0  0
  156.2223   47.4218  143.8862 C   0  0  0  0  0  0  0  0  0  0  0  0
  157.1626   48.3374  143.5624 N   0  0  0  0  0  0  0  0  0  0  0  0
  156.3647   46.7738  145.0646 N   0  0  0  0  0  0  0  0  0  0  0  0
  155.4655   45.8476  145.4604 C   0  0  0  0  0  0  0  0  0  0  0  0
  159.6798   41.7564  147.3117 P   0  0  2  0  0  0  0  0  0  0  0  0
  158.3861   40.9804  147.3618 O   0  0  0  0  0  0  0  0  0  0  0  0
  160.8519   41.3764  148.1970 O   0  0  0  0  0  0  0  0  0  0  0  0
  160.1632   41.7925  145.7708 O   0  0  0  0  0  0  0  0  0  0  0  0
  161.5002   42.1736  145.4489 C   0  0  0  0  0  0  0  0  0  0  0  0
  161.6697   42.6025  143.9881 C   0  0  1  0  0  0  0  0  0  0  0  0
  161.6167   41.4479  143.1474 O   0  0  0  0  0  0  0  0  0  0  0  0
  160.6107   43.5741  143.4720 C   0  0  1  0  0  0  0  0  0  0  0  0
  161.0277   44.9347  143.5767 O   0  0  0  0  0  0  0  0  0  0  0  0
  160.4594   43.1471  142.0239 C   0  0  1  0  0  0  0  0  0  0  0  0
  161.4196   43.8085  141.1954 O   0  0  0  0  0  0  0  0  0  0  0  0
  160.7851   41.6682  142.0050 C   0  0  2  0  0  0  0  0  0  0  0  0
  159.5360   40.8832  142.1652 N   0  0  0  0  0  0  0  0  0  0  0  0
  159.2117   40.1317  143.2359 C   0  0  0  0  0  0  0  0  0  0  0  0
  157.9923   39.5421  143.0915 N   0  0  0  0  0  0  0  0  0  0  0  0
  157.5069   39.9244  141.8997 C   0  0  0  0  0  0  0  0  0  0  0  0
  156.2760   39.6625  141.1109 C   0  0  0  0  0  0  0  0  0  0  0  0
  155.3507   38.9375  141.5353 O   0  0  0  0  0  0  0  0  0  0  0  0
  156.1705   40.2551  139.9203 N   0  0  0  0  0  0  0  0  0  0  0  0
  157.1329   41.0471  139.4230 C   0  0  0  0  0  0  0  0  0  0  0  0
  156.9283   41.5802  138.2093 N   0  0  0  0  0  0  0  0  0  0  0  0
  158.2851   41.3264  140.0763 N   0  0  0  0  0  0  0  0  0  0  0  0
  158.5282   40.8039  141.2966 C   0  0  0  0  0  0  0  0  0  0  0  0
  1  3  2  6  0  0  0
  1 32  1  0  0  0  0
  1  2  1  0  0  0  0
  1  4  1  0  0  0  0
  4  5  1  0  0  0  0
  6  5  1  6  0  0  0
  7  6  1  0  0  0  0
  8  6  1  0  0  0  0
  8 10  1  0  0  0  0
  8  9  1  1  0  0  0
 10 11  1  1  0  0  0
 12 13  1  6  0  0  0
 12  7  1  0  0  0  0
 12 10  1  0  0  0  0
 14 13  1  0  0  0  0
 15 16  1  0  0  0  0
 15 14  2  0  0  0  0
 16 23  2  0  0  0  0
 17 16  1  0  0  0  0
 17 19  1  0  0  0  0
 18 17  2  0  0  0  0
 19 20  2  0  0  0  0
 20 22  1  0  0  0  0
 20 21  1  0  0  0  0
 23 13  1  0  0  0  0
 23 22  1  0  0  0  0
 24 25  2  1  0  0  0
 24  9  1  0  0  0  0
 24 26  1  0  0  0  0
 27 28  1  0  0  0  0
 27 24  1  0  0  0  0
 29 30  1  6  0  0  0
 29 28  1  0  0  0  0
 31 32  1  6  0  0  0
 31 29  1  0  0  0  0
 33 34  1  6  0  0  0
 33 35  1  0  0  0  0
 33 31  1  0  0  0  0
 35 36  1  1  0  0  0
 35 30  1  0  0  0  0
 36 37  1  0  0  0  0
 38 37  2  0  0  0  0
 39 38  1  0  0  0  0
 40 41  2  0  0  0  0
 40 39  1  0  0  0  0
 42 40  1  0  0  0  0
 43 42  2  0  0  0  0
 43 45  1  0  0  0  0
 44 43  1  0  0  0  0
 45 46  1  0  0  0  0
 46 39  2  0  0  0  0
 46 36  1  0  0  0  0
M  END
>  <CHROM.1>
-172.69976758,2.62076047,158.16249979,43.58359103,144.24300566,-1.89071891
0.67238014,-2.16964415

>  <Name>
lig.pdb

>  <RI>
0

>  <Rbt.Current_Directory>
/home/itssahil/PROJECTS/Mol_Feturizer/New_Systems/rnas/4yb0

>  <Rbt.Executable>
rbdock ($Id: //depot/dev/client3/rdock/2013.1/src/exe/rbdock.cxx#4 $)

>  <Rbt.Library>
libRbt.so (2013.1, Build901 2013/11/27)

>  <Rbt.Parameter_File>
/export/apps/rDock/src/rDock_2013.1_src/data/scripts/dock_solv.prm

>  <Rbt.Receptor>
prm/pocket_docking_4.prm

>  <SCORE>
-47.8067

>  <SCORE.INTER>
-47.6719

>  <SCORE.INTER.CONST>
1

>  <SCORE.INTER.POLAR>
0

>  <SCORE.INTER.ROT>
2

>  <SCORE.INTER.SOLV>
26.9064

>  <SCORE.INTER.VDW>
-45.6834

>  <SCORE.INTER.norm>
-1.03635

>  <SCORE.INTRA>
-0.134866

>  <SCORE.INTRA.DIHEDRAL>
0.083066

>  <SCORE.INTRA.DIHEDRAL.0>
4.74153

>  <SCORE.INTRA.POLAR>
0

>  <SCORE.INTRA.POLAR.0>
0

>  <SCORE.INTRA.REPUL>
0

>  <SCORE.INTRA.REPUL.0>
0

>  <SCORE.INTRA.SOLV>
2.8232

>  <SCORE.INTRA.SOLV.lig_0>
-60.4375

>  <SCORE.INTRA.VDW>
-1.588

>  <SCORE.INTRA.VDW.0>
-1.83689

>  <SCORE.INTRA.norm>
-0.00293186

>  <SCORE.RESTR>
0

>  <SCORE.RESTR.CAVITY>
0

>  <SCORE.RESTR.norm>
0

>  <SCORE.SYSTEM>
0

>  <SCORE.SYSTEM.CONST>
0

>  <SCORE.SYSTEM.DIHEDRAL>
0

>  <SCORE.SYSTEM.SOLV>
0

>  <SCORE.SYSTEM.norm>
0

>  <SCORE.heavy>
46

>  <SCORE.norm>
-1.03928

>  <RMSD>
2.132

$$$$
lig.pdb
 OpenBabel11021811523D
libRbt.so/2013.1/901 2013/11/27
 46 52  0  0  0  0  0  0  0  0999 V2000
  160.0583   46.0476  143.6711 P   0  0  2  0  0  0  0  0  0  0  0  0
  160.7457   47.3743  143.9099 O   0  0  0  0  0  0  0  0  0  0  0  0
  159.2235   45.9323  142.4217 O   0  0  0  0  0  0  0  0  0  0  0  0
  159.1474   45.6267  144.9273 O   0  0  0  0  0  0  0  0  0  0  0  0
  159.2015   46.3376  146.1572 C   0  0  0  0  0  0  0  0  0  0  0  0
  158.5620   45.5136  147.2626 C   0  0  1  0  0  0  0  0  0  0  0  0
  157.2706   46.0477  147.5178 O   0  0  0  0  0  0  0  0  0  0  0  0
  158.3579   44.0366  146.9502 C   0  0  1  0  0  0  0  0  0  0  0  0
  159.3429   43.2655  147.6224 O   0  0  0  0  0  0  0  0  0  0  0  0
  157.0145   43.7273  147.5719 C   0  0  1  0  0  0  0  0  0  0  0  0
  157.1978   43.3029  148.9240 O   0  0  0  0  0  0  0  0  0  0  0  0
  156.2806   45.0359  147.6221 C   0  0  2  0  0  0  0  0  0  0  0  0
  155.3781   45.1332  146.4505 N   0  0  0  0  0  0  0  0  0  0  0  0
  154.3964   44.2673  146.1437 C   0  0  0  0  0  0  0  0  0  0  0  0
  153.7720   44.6393  145.0005 N   0  0  0  0  0  0  0  0  0  0  0  0
  154.3562   45.7655  144.5542 C   0  0  0  0  0  0  0  0  0  0  0  0
  154.1793   46.6806  143.4021 C   0  0  0  0  0  0  0  0  0  0  0  0
  153.2918   46.4540  142.5448 O   0  0  0  0  0  0  0  0  0  0  0  0
  154.9967   47.7438  143.3134 N   0  0  0  0  0  0  0  0  0  0  0  0
  155.9487   47.9817  144.2354 C   0  0  0  0  0  0  0  0  0  0  0  0
  156.7392   49.0696  144.0978 N   0  0  0  0  0  0  0  0  0  0  0  0
  156.1636   47.1883  145.3092 N   0  0  0  0  0  0  0  0  0  0  0  0
  155.4136   46.0852  145.5183 C   0  0  0  0  0  0  0  0  0  0  0  0
  159.6085   41.6937  147.3141 P   0  0  2  0  0  0  0  0  0  0  0  0
  158.2916   40.9563  147.3288 O   0  0  0  0  0  0  0  0  0  0  0  0
  160.7475   41.2740  148.2244 O   0  0  0  0  0  0  0  0  0  0  0  0
  160.1293   41.7241  145.7853 O   0  0  0  0  0  0  0  0  0  0  0  0
  161.4843   42.0670  145.4975 C   0  0  0  0  0  0  0  0  0  0  0  0
  161.7011   42.4988  144.0438 C   0  0  1  0  0  0  0  0  0  0  0  0
  161.6338   41.3510  143.1948 O   0  0  0  0  0  0  0  0  0  0  0  0
  160.6839   43.5044  143.5089 C   0  0  1  0  0  0  0  0  0  0  0  0
  161.1385   44.8514  143.6320 O   0  0  0  0  0  0  0  0  0  0  0  0
  160.5545   43.0902  142.0550 C   0  0  1  0  0  0  0  0  0  0  0  0
  161.5533   43.7273  141.2536 O   0  0  0  0  0  0  0  0  0  0  0  0
  160.8365   41.6024  142.0345 C   0  0  2  0  0  0  0  0  0  0  0  0
  159.5613   40.8540  142.1602 N   0  0  0  0  0  0  0  0  0  0  0  0
  159.1986   40.0893  143.2091 C   0  0  0  0  0  0  0  0  0  0  0  0
  157.9635   39.5421  143.0352 N   0  0  0  0  0  0  0  0  0  0  0  0
  157.5068   39.9663  141.8462 C   0  0  0  0  0  0  0  0  0  0  0  0
  156.2795   39.7615  141.0355 C   0  0  0  0  0  0  0  0  0  0  0  0
  155.3260   39.0569  141.4310 O   0  0  0  0  0  0  0  0  0  0  0  0
  156.2091   40.3837  139.8575 N   0  0  0  0  0  0  0  0  0  0  0  0
  157.2028   41.1557  139.3912 C   0  0  0  0  0  0  0  0  0  0  0  0
  157.0318   41.7223  138.1874 N   0  0  0  0  0  0  0  0  0  0  0  0
  158.3540   41.3836  140.0658 N   0  0  0  0  0  0  0  0  0  0  0  0
  158.5636   40.8263  141.2769 C   0  0  0  0  0  0  0  0  0  0  0  0
  1  3  2  6  0  0  0
  1 32  1  0  0  0  0
  1  2  1  0  0  0  0
  1  4  1  0  0  0  0
  4  5  1  0  0  0  0
  6  5  1  6  0  0  0
  7  6  1  0  0  0  0
  8  6  1  0  0  0  0
  8 10  1  0  0  0  0
  8  9  1  1  0  0  0
 10 11  1  1  0  0  0
 12 13  1  6  0  0  0
 12  7  1  0  0  0  0
 12 10  1  0  0  0  0
 14 13  1  0  0  0  0
 15 16  1  0  0  0  0
 15 14  2  0  0  0  0
 16 23  2  0  0  0  0
 17 16  1  0  0  0  0
 17 19  1  0  0  0  0
 18 17  2  0  0  0  0
 19 20  2  0  0  0  0
 20 22  1  0  0  0  0
 20 21  1  0  0  0  0
 23 13  1  0  0  0  0
 23 22  1  0  0  0  0
 24 25  2  1  0  0  0
 24  9  1  0  0  0  0
 24 26  1  0  0  0  0
 27 28  1  0  0  0  0
 27 24  1  0  0  0  0
 29 30  1  6  0  0  0
 29 28  1  0  0  0  0
 31 32  1  6  0  0  0
 31 29  1  0  0  0  0
 33 34  1  6  0  0  0
 33 35  1  0  0  0  0
 33 31  1  0  0  0  0
 35 36  1  1  0  0  0
 35 30  1  0  0  0  0
 36 37  1  0  0  0  0
 38 37  2  0  0  0  0
 39 38  1  0  0  0  0
 40 41  2  0  0  0  0
 40 39  1  0  0  0  0
 42 40  1  0  0  0  0
 43 42  2  0  0  0  0
 43 45  1  0  0  0  0
 44 43  1  0  0  0  0
 45 46  1  0  0  0  0
 46 39  2  0  0  0  0
 46 36  1  0  0  0  0
M  END
>  <CHROM.1>
173.63078978,1.49312972,158.17377137,43.63586027,144.26197945,-2.01100535
0.70908582,-2.17855364

>  <Name>
lig.pdb

>  <RI>
0

>  <Rbt.Current_Directory>
/home/itssahil/PROJECTS/Mol_Feturizer/New_Systems/rnas/4yb0

>  <Rbt.Executable>
rbdock ($Id: //depot/dev/client3/rdock/2013.1/src/exe/rbdock.cxx#4 $)

>  <Rbt.Library>
libRbt.so (2013.1, Build901 2013/11/27)

>  <Rbt.Parameter_File>
/export/apps/rDock/src/rDock_2013.1_src/data/scripts/dock_solv.prm

>  <Rbt.Receptor>
prm/pocket_docking_5.prm

>  <SCORE>
-48.2822

>  <SCORE.INTER>
-47.9563

>  <SCORE.INTER.CONST>
1

>  <SCORE.INTER.POLAR>
0

>  <SCORE.INTER.ROT>
2

>  <SCORE.INTER.SOLV>
27.7792

>  <SCORE.INTER.VDW>
-46.1639

>  <SCORE.INTER.norm>
-1.04253

>  <SCORE.INTRA>
-0.325886

>  <SCORE.INTRA.DIHEDRAL>
0.0474779

>  <SCORE.INTRA.DIHEDRAL.0>
4.74153

>  <SCORE.INTRA.POLAR>
0

>  <SCORE.INTRA.POLAR.0>
0

>  <SCORE.INTRA.REPUL>
0

>  <SCORE.INTRA.REPUL.0>
0

>  <SCORE.INTRA.SOLV>
0.762826

>  <SCORE.INTRA.SOLV.lig_0>
-60.4375

>  <SCORE.INTRA.VDW>
-0.731038

>  <SCORE.INTRA.VDW.0>
-1.83689

>  <SCORE.INTRA.norm>
-0.00708449

>  <SCORE.RESTR>
0

>  <SCORE.RESTR.CAVITY>
0

>  <SCORE.RESTR.norm>
0

>  <SCORE.SYSTEM>
0

>  <SCORE.SYSTEM.CONST>
0

>  <SCORE.SYSTEM.DIHEDRAL>
0

>  <SCORE.SYSTEM.SOLV>
0

>  <SCORE.SYSTEM.norm>
0

>  <SCORE.heavy>
46

>  <SCORE.norm>
-1.04961

>  <RMSD>
2.136

$$$$
lig.pdb
 OpenBabel11021811523D
libRbt.so/2013.1/901 2013/11/27
 46 52  0  0  0  0  0  0  0  0999 V2000
  160.0542   46.0022  143.6221 P   0  0  2  0  0  0  0  0  0  0  0  0
  160.7503   47.3264  143.8491 O   0  0  0  0  0  0  0  0  0  0  0  0
  159.2092   45.8851  142.3798 O   0  0  0  0  0  0  0  0  0  0  0  0
  159.1509   45.5922  144.8874 O   0  0  0  0  0  0  0  0  0  0  0  0
  159.2182   46.3089  146.1134 C   0  0  0  0  0  0  0  0  0  0  0  0
  158.5831   45.4937  147.2277 C   0  0  1  0  0  0  0  0  0  0  0  0
  157.2965   46.0357  147.4903 O   0  0  0  0  0  0  0  0  0  0  0  0
  158.3690   44.0163  146.9243 C   0  0  1  0  0  0  0  0  0  0  0  0
  159.3551   43.2433  147.5926 O   0  0  0  0  0  0  0  0  0  0  0  0
  157.0288   43.7170  147.5578 C   0  0  1  0  0  0  0  0  0  0  0  0
  157.2204   43.2983  148.9106 O   0  0  0  0  0  0  0  0  0  0  0  0
  156.3021   45.0296  147.6072 C   0  0  2  0  0  0  0  0  0  0  0  0
  155.3911   45.1258  146.4421 N   0  0  0  0  0  0  0  0  0  0  0  0
  154.4098   44.2575  146.1411 C   0  0  0  0  0  0  0  0  0  0  0  0
  153.7763   44.6292  145.0029 N   0  0  0  0  0  0  0  0  0  0  0  0
  154.3539   45.7578  144.5540 C   0  0  0  0  0  0  0  0  0  0  0  0
  154.1662   46.6739  143.4045 C   0  0  0  0  0  0  0  0  0  0  0  0
  153.2733   46.4459  142.5531 O   0  0  0  0  0  0  0  0  0  0  0  0
  154.9797   47.7397  143.3115 N   0  0  0  0  0  0  0  0  0  0  0  0
  155.9375   47.9791  144.2271 C   0  0  0  0  0  0  0  0  0  0  0  0
  156.7238   49.0696  144.0854 N   0  0  0  0  0  0  0  0  0  0  0  0
  156.1624   47.1848  145.2982 N   0  0  0  0  0  0  0  0  0  0  0  0
  155.4171   46.0793  145.5111 C   0  0  0  0  0  0  0  0  0  0  0  0
  159.6102   41.6687  147.2901 P   0  0  2  0  0  0  0  0  0  0  0  0
  158.2897   40.9382  147.3186 O   0  0  0  0  0  0  0  0  0  0  0  0
  160.7540   41.2476  148.1936 O   0  0  0  0  0  0  0  0  0  0  0  0
  160.1193   41.6888  145.7572 O   0  0  0  0  0  0  0  0  0  0  0  0
  161.4737   42.0232  145.4571 C   0  0  0  0  0  0  0  0  0  0  0  0
  161.6815   42.4467  143.9997 C   0  0  1  0  0  0  0  0  0  0  0  0
  161.6017   41.2952  143.1569 O   0  0  0  0  0  0  0  0  0  0  0  0
  160.6654   43.4550  143.4677 C   0  0  1  0  0  0  0  0  0  0  0  0
  161.1278   44.8002  143.5807 O   0  0  0  0  0  0  0  0  0  0  0  0
  160.5225   43.0343  142.0170 C   0  0  1  0  0  0  0  0  0  0  0  0
  161.5184   43.6623  141.2047 O   0  0  0  0  0  0  0  0  0  0  0  0
  160.7967   41.5450  142.0016 C   0  0  2  0  0  0  0  0  0  0  0  0
  159.5186   40.8039  142.1409 N   0  0  0  0  0  0  0  0  0  0  0  0
  159.1576   40.0512  143.1991 C   0  0  0  0  0  0  0  0  0  0  0  0
  157.9191   39.5082  143.0366 N   0  0  0  0  0  0  0  0  0  0  0  0
  157.4585   39.9228  141.8457 C   0  0  0  0  0  0  0  0  0  0  0  0
  156.2263   39.7159  141.0430 C   0  0  0  0  0  0  0  0  0  0  0  0
  155.2715   39.0196  141.4501 O   0  0  0  0  0  0  0  0  0  0  0  0
  156.1530   40.3268  139.8594 N   0  0  0  0  0  0  0  0  0  0  0  0
  157.1480   41.0895  139.3806 C   0  0  0  0  0  0  0  0  0  0  0  0
  156.9737   41.6450  138.1722 N   0  0  0  0  0  0  0  0  0  0  0  0
  158.3035   41.3185  140.0473 N   0  0  0  0  0  0  0  0  0  0  0  0
  158.5165   40.7722  141.2628 C   0  0  0  0  0  0  0  0  0  0  0  0
  1  3  2  6  0  0  0
  1 32  1  0  0  0  0
  1  2  1  0  0  0  0
  1  4  1  0  0  0  0
  4  5  1  0  0  0  0
  6  5  1  6  0  0  0
  7  6  1  0  0  0  0
  8  6  1  0  0  0  0
  8 10  1  0  0  0  0
  8  9  1  1  0  0  0
 10 11  1  1  0  0  0
 12 13  1  6  0  0  0
 12  7  1  0  0  0  0
 12 10  1  0  0  0  0
 14 13  1  0  0  0  0
 15 16  1  0  0  0  0
 15 14  2  0  0  0  0
 16 23  2  0  0  0  0
 17 16  1  0  0  0  0
 17 19  1  0  0  0  0
 18 17  2  0  0  0  0
 19 20  2  0  0  0  0
 20 22  1  0  0  0  0
 20 21  1  0  0  0  0
 23 13  1  0  0  0  0
 23 22  1  0  0  0  0
 24 25  2  1  0  0  0
 24  9  1  0  0  0  0
 24 26  1  0  0  0  0
 27 28  1  0  0  0  0
 27 24  1  0  0  0  0
 29 30  1  6  0  0  0
 29 28  1  0  0  0  0
 31 32  1  6  0  0  0
 31 29  1  0  0  0  0
 33 34  1  6  0  0  0
 33 35  1  0  0  0  0
 33 31  1  0  0  0  0
 35 36  1  1  0  0  0
 35 30  1  0  0  0  0
 36 37  1  0  0  0  0
 38 37  2  0  0  0  0
 39 38  1  0  0  0  0
 40 41  2  0  0  0  0
 40 39  1  0  0  0  0
 42 40  1  0  0  0  0
 43 42  2  0  0  0  0
 43 45  1  0  0  0  0
 44 43  1  0  0  0  0
 45 46  1  0  0  0  0
 46 39  2  0  0  0  0
 46 36  1  0  0  0  0
M  END
>  <CHROM.1>
173.03737979,1.81845305,158.16054485,43.60364373,144.24049785,-2.00076997
0.70807319,-2.19229822

>  <Name>
lig.pdb

>  <RI>
0

>  <Rbt.Current_Directory>
/home/itssahil/PROJECTS/Mol_Feturizer/New_Systems/rnas/4yb0

>  <Rbt.Executable>
rbdock ($Id: //depot/dev/client3/rdock/2013.1/src/exe/rbdock.cxx#4 $)

>  <Rbt.Library>
libRbt.so (2013.1, Build901 2013/11/27)

>  <Rbt.Parameter_File>
/export/apps/rDock/src/rDock_2013.1_src/data/scripts/dock_solv.prm

>  <Rbt.Receptor>
prm/pocket_docking_4.prm

>  <SCORE>
-48.3532

>  <SCORE.INTER>
-48.0201

>  <SCORE.INTER.CONST>
1

>  <SCORE.INTER.POLAR>
0

>  <SCORE.INTER.ROT>
2

>  <SCORE.INTER.SOLV>
28.1702

>  <SCORE.INTER.VDW>
-46.3368

>  <SCORE.INTER.norm>
-1.04391

>  <SCORE.INTRA>
-0.333138

>  <SCORE.INTRA.DIHEDRAL>
0.0471536

>  <SCORE.INTRA.DIHEDRAL.0>
4.74153

>  <SCORE.INTRA.POLAR>
0

>  <SCORE.INTRA.POLAR.0>
0

>  <SCORE.INTRA.REPUL>
0

>  <SCORE.INTRA.REPUL.0>
0

>  <SCORE.INTRA.SOLV>
0.697882

>  <SCORE.INTRA.SOLV.lig_0>
-60.4375

>  <SCORE.INTRA.VDW>
-0.705655

>  <SCORE.INTRA.VDW.0>
-1.83689

>  <SCORE.INTRA.norm>
-0.00724212

>  <SCORE.RESTR>
0

>  <SCORE.RESTR.CAVITY>
0

>  <SCORE.RESTR.norm>
0

>  <SCORE.SYSTEM>
0

>  <SCORE.SYSTEM.CONST>
0

>  <SCORE.SYSTEM.DIHEDRAL>
0

>  <SCORE.SYSTEM.SOLV>
0

>  <SCORE.SYSTEM.norm>
0

>  <SCORE.heavy>
46

>  <SCORE.norm>
-1.05116

>  <RMSD>
2.141

$$$$
lig.pdb
 OpenBabel11021811523D
libRbt.so/2013.1/901 2013/11/27
 46 52  0  0  0  0  0  0  0  0999 V2000
  160.0561   46.0023  143.6320 P   0  0  2  0  0  0  0  0  0  0  0  0
  160.7502   47.3267  143.8641 O   0  0  0  0  0  0  0  0  0  0  0  0
  159.2123   45.8882  142.3886 O   0  0  0  0  0  0  0  0  0  0  0  0
  159.1523   45.5868  144.8952 O   0  0  0  0  0  0  0  0  0  0  0  0
  159.2176   46.2994  146.1236 C   0  0  0  0  0  0  0  0  0  0  0  0
  158.5826   45.4796  147.2346 C   0  0  1  0  0  0  0  0  0  0  0  0
  157.2950   46.0189  147.4979 O   0  0  0  0  0  0  0  0  0  0  0  0
  158.3707   44.0029  146.9260 C   0  0  1  0  0  0  0  0  0  0  0  0
  159.3573   43.2290  147.5925 O   0  0  0  0  0  0  0  0  0  0  0  0
  157.0304   43.6997  147.5574 C   0  0  1  0  0  0  0  0  0  0  0  0
  157.2215   43.2767  148.9089 O   0  0  0  0  0  0  0  0  0  0  0  0
  156.3019   45.0111  147.6106 C   0  0  2  0  0  0  0  0  0  0  0  0
  155.3918   45.1101  146.4451 N   0  0  0  0  0  0  0  0  0  0  0  0
  154.4057   44.2467  146.1456 C   0  0  0  0  0  0  0  0  0  0  0  0
  153.7745   44.6196  145.0064 N   0  0  0  0  0  0  0  0  0  0  0  0
  154.3587   45.7439  144.5554 C   0  0  0  0  0  0  0  0  0  0  0  0
  154.1764   46.6587  143.4039 C   0  0  0  0  0  0  0  0  0  0  0  0
  153.2825   46.4340  142.5528 O   0  0  0  0  0  0  0  0  0  0  0  0
  154.9960   47.7197  143.3089 N   0  0  0  0  0  0  0  0  0  0  0  0
  155.9549   47.9557  144.2243 C   0  0  0  0  0  0  0  0  0  0  0  0
  156.7473   49.0413  144.0805 N   0  0  0  0  0  0  0  0  0  0  0  0
  156.1750   47.1623  145.2971 N   0  0  0  0  0  0  0  0  0  0  0  0
  155.4234   46.0615  145.5121 C   0  0  0  0  0  0  0  0  0  0  0  0
  159.6148   41.6557  147.2849 P   0  0  2  0  0  0  0  0  0  0  0  0
  158.2952   40.9234  147.3098 O   0  0  0  0  0  0  0  0  0  0  0  0
  160.7584   41.2331  148.1880 O   0  0  0  0  0  0  0  0  0  0  0  0
  160.1251   41.6817  145.7525 O   0  0  0  0  0  0  0  0  0  0  0  0
  161.4794   42.0190  145.4548 C   0  0  0  0  0  0  0  0  0  0  0  0
  161.6878   42.4477  143.9990 C   0  0  1  0  0  0  0  0  0  0  0  0
  161.6103   41.2989  143.1522 O   0  0  0  0  0  0  0  0  0  0  0  0
  160.6708   43.4564  143.4695 C   0  0  1  0  0  0  0  0  0  0  0  0
  161.1314   44.8018  143.5874 O   0  0  0  0  0  0  0  0  0  0  0  0
  160.5298   43.0404  142.0172 C   0  0  1  0  0  0  0  0  0  0  0  0
  161.5255   43.6725  141.2080 O   0  0  0  0  0  0  0  0  0  0  0  0
  160.8060   41.5515  141.9971 C   0  0  2  0  0  0  0  0  0  0  0  0
  159.5288   40.8083  142.1328 N   0  0  0  0  0  0  0  0  0  0  0  0
  159.1668   40.0536  143.1892 C   0  0  0  0  0  0  0  0  0  0  0  0
  157.9294   39.5089  143.0234 N   0  0  0  0  0  0  0  0  0  0  0  0
  157.4707   39.9244  141.8322 C   0  0  0  0  0  0  0  0  0  0  0  0
  156.2404   39.7166  141.0267 C   0  0  0  0  0  0  0  0  0  0  0  0
  155.2858   39.0183  141.4309 O   0  0  0  0  0  0  0  0  0  0  0  0
  156.1685   40.3290  139.8437 N   0  0  0  0  0  0  0  0  0  0  0  0
  157.1633   41.0939  139.3680 C   0  0  0  0  0  0  0  0  0  0  0  0
  156.9907   41.6508  138.1600 N   0  0  0  0  0  0  0  0  0  0  0  0
  158.3172   41.3239  140.0374 N   0  0  0  0  0  0  0  0  0  0  0  0
  158.5285   40.7763  141.2526 C   0  0  0  0  0  0  0  0  0  0  0  0
  1  3  2  6  0  0  0
  1 32  1  0  0  0  0
  1  2  1  0  0  0  0
  1  4  1  0  0  0  0
  4  5  1  0  0  0  0
  6  5  1  6  0  0  0
  7  6  1  0  0  0  0
  8  6  1  0  0  0  0
  8 10  1  0  0  0  0
  8  9  1  1  0  0  0
 10 11  1  1  0  0  0
 12 13  1  6  0  0  0
 12  7  1  0  0  0  0
 12 10  1  0  0  0  0
 14 13  1  0  0  0  0
 15 16  1  0  0  0  0
 15 14  2  0  0  0  0
 16 23  2  0  0  0  0
 17 16  1  0  0  0  0
 17 19  1  0  0  0  0
 18 17  2  0  0  0  0
 19 20  2  0  0  0  0
 20 22  1  0  0  0  0
 20 21  1  0  0  0  0
 23 13  1  0  0  0  0
 23 22  1  0  0  0  0
 24 25  2  1  0  0  0
 24  9  1  0  0  0  0
 24 26  1  0  0  0  0
 27 28  1  0  0  0  0
 27 24  1  0  0  0  0
 29 30  1  6  0  0  0
 29 28  1  0  0  0  0
 31 32  1  6  0  0  0
 31 29  1  0  0  0  0
 33 34  1  6  0  0  0
 33 35  1  0  0  0  0
 33 31  1  0  0  0  0
 35 36  1  1  0  0  0
 35 30  1  0  0  0  0
 36 37  1  0  0  0  0
 38 37  2  0  0  0  0
 39 38  1  0  0  0  0
 40 41  2  0  0  0  0
 40 39  1  0  0  0  0
 42 40  1  0  0  0  0
 43 42  2  0  0  0  0
 43 45  1  0  0  0  0
 44 43  1  0  0  0  0
 45 46  1  0  0  0  0
 46 39  2  0  0  0  0
 46 36  1  0  0  0  0
M  END
>  <CHROM.1>
173.54653689,1.95382182,158.16721593,43.59695781,144.23883060,-1.99822096
0.70821266,-2.18726787

>  <Name>
lig.pdb

>  <RI>
0

>  <Rbt.Current_Directory>
/home/itssahil/PROJECTS/Mol_Feturizer/New_Systems/rnas/4yb0

>  <Rbt.Executable>
rbdock ($Id: //depot/dev/client3/rdock/2013.1/src/exe/rbdock.cxx#4 $)

>  <Rbt.Library>
libRbt.so (2013.1, Build901 2013/11/27)

>  <Rbt.Parameter_File>
/export/apps/rDock/src/rDock_2013.1_src/data/scripts/dock_solv.prm

>  <Rbt.Receptor>
prm/pocket_docking_4.prm

>  <SCORE>
-48.3267

>  <SCORE.INTER>
-47.9992

>  <SCORE.INTER.CONST>
1

>  <SCORE.INTER.POLAR>
0

>  <SCORE.INTER.ROT>
2

>  <SCORE.INTER.SOLV>
28.1484

>  <SCORE.INTER.VDW>
-46.3156

>  <SCORE.INTER.norm>
-1.04346

>  <SCORE.INTRA>
-0.327513

>  <SCORE.INTRA.DIHEDRAL>
0.0487328

>  <SCORE.INTRA.DIHEDRAL.0>
4.74153

>  <SCORE.INTRA.POLAR>
0

>  <SCORE.INTRA.POLAR.0>
0

>  <SCORE.INTRA.REPUL>
0

>  <SCORE.INTRA.REPUL.0>
0

>  <SCORE.INTRA.SOLV>
0.755107

>  <SCORE.INTRA.SOLV.lig_0>
-60.4375

>  <SCORE.INTRA.VDW>
-0.729433

>  <SCORE.INTRA.VDW.0>
-1.83689

>  <SCORE.INTRA.norm>
-0.00711985

>  <SCORE.RESTR>
0

>  <SCORE.RESTR.CAVITY>
0

>  <SCORE.RESTR.norm>
0

>  <SCORE.SYSTEM>
0

>  <SCORE.SYSTEM.CONST>
0

>  <SCORE.SYSTEM.DIHEDRAL>
0

>  <SCORE.SYSTEM.SOLV>
0

>  <SCORE.SYSTEM.norm>
0

>  <SCORE.heavy>
46

>  <SCORE.norm>
-1.05058

>  <RMSD>
2.142

$$$$
lig.pdb
 OpenBabel11021811523D
libRbt.so/2013.1/901 2013/11/27
 46 52  0  0  0  0  0  0  0  0999 V2000
  160.0728   45.9981  143.6386 P   0  0  2  0  0  0  0  0  0  0  0  0
  160.7711   47.3205  143.8692 O   0  0  0  0  0  0  0  0  0  0  0  0
  159.2329   45.8837  142.3925 O   0  0  0  0  0  0  0  0  0  0  0  0
  159.1629   45.5899  144.8997 O   0  0  0  0  0  0  0  0  0  0  0  0
  159.2266   46.3059  146.1263 C   0  0  0  0  0  0  0  0  0  0  0  0
  158.5844   45.4918  147.2374 C   0  0  1  0  0  0  0  0  0  0  0  0
  157.2981   46.0369  147.4946 O   0  0  0  0  0  0  0  0  0  0  0  0
  158.3680   44.0150  146.9324 C   0  0  1  0  0  0  0  0  0  0  0  0
  159.3492   43.2393  147.6047 O   0  0  0  0  0  0  0  0  0  0  0  0
  157.0243   43.7189  147.5599 C   0  0  1  0  0  0  0  0  0  0  0  0
  157.2089   43.2991  148.9133 O   0  0  0  0  0  0  0  0  0  0  0  0
  156.3007   45.0333  147.6067 C   0  0  2  0  0  0  0  0  0  0  0  0
  155.3951   45.1323  146.4376 N   0  0  0  0  0  0  0  0  0  0  0  0
  154.4146   44.2652  146.1305 C   0  0  0  0  0  0  0  0  0  0  0  0
  153.7865   44.6394  144.9901 N   0  0  0  0  0  0  0  0  0  0  0  0
  154.3669   45.7685  144.5460 C   0  0  0  0  0  0  0  0  0  0  0  0
  154.1850   46.6869  143.3974 C   0  0  0  0  0  0  0  0  0  0  0  0
  153.2959   46.4610  142.5415 O   0  0  0  0  0  0  0  0  0  0  0  0
  154.9997   47.7523  143.3101 N   0  0  0  0  0  0  0  0  0  0  0  0
  155.9534   47.9894  144.2305 C   0  0  0  0  0  0  0  0  0  0  0  0
  156.7411   49.0796  144.0945 N   0  0  0  0  0  0  0  0  0  0  0  0
  156.1729   47.1929  145.3012 N   0  0  0  0  0  0  0  0  0  0  0  0
  155.4259   46.0875  145.5086 C   0  0  0  0  0  0  0  0  0  0  0  0
  159.6017   41.6641  147.3027 P   0  0  2  0  0  0  0  0  0  0  0  0
  158.2792   40.9370  147.3250 O   0  0  0  0  0  0  0  0  0  0  0  0
  160.7404   41.2397  148.2110 O   0  0  0  0  0  0  0  0  0  0  0  0
  160.1175   41.6836  145.7720 O   0  0  0  0  0  0  0  0  0  0  0  0
  161.4741   42.0148  145.4781 C   0  0  0  0  0  0  0  0  0  0  0  0
  161.6894   42.4384  144.0218 C   0  0  1  0  0  0  0  0  0  0  0  0
  161.6104   41.2874  143.1782 O   0  0  0  0  0  0  0  0  0  0  0  0
  160.6782   43.4494  143.4858 C   0  0  1  0  0  0  0  0  0  0  0  0
  161.1435   44.7934  143.6014 O   0  0  0  0  0  0  0  0  0  0  0  0
  160.5407   43.0297  142.0342 C   0  0  1  0  0  0  0  0  0  0  0  0
  161.5417   43.6555  141.2267 O   0  0  0  0  0  0  0  0  0  0  0  0
  160.8112   41.5397  142.0194 C   0  0  2  0  0  0  0  0  0  0  0  0
  159.5306   40.8018  142.1528 N   0  0  0  0  0  0  0  0  0  0  0  0
  159.1640   40.0478  143.2080 C   0  0  0  0  0  0  0  0  0  0  0  0
  157.9245   39.5085  143.0402 N   0  0  0  0  0  0  0  0  0  0  0  0
  157.4692   39.9270  141.8486 C   0  0  0  0  0  0  0  0  0  0  0  0
  156.2391   39.7251  141.0413 C   0  0  0  0  0  0  0  0  0  0  0  0
  155.2810   39.0306  141.4436 O   0  0  0  0  0  0  0  0  0  0  0  0
  156.1715   40.3388  139.8587 N   0  0  0  0  0  0  0  0  0  0  0  0
  157.1701   41.0999  139.3851 C   0  0  0  0  0  0  0  0  0  0  0  0
  157.0015   41.6585  138.1773 N   0  0  0  0  0  0  0  0  0  0  0  0
  158.3241   41.3243  140.0562 N   0  0  0  0  0  0  0  0  0  0  0  0
  158.5314   40.7748  141.2712 C   0  0  0  0  0  0  0  0  0  0  0  0
  1  3  2  6  0  0  0
  1 32  1  0  0  0  0
  1  2  1  0  0  0  0
  1  4  1  0  0  0  0
  4  5  1  0  0  0  0
  6  5  1  6  0  0  0
  7  6  1  0  0  0  0
  8  6  1  0  0  0  0
  8 10  1  0  0  0  0
  8  9  1  1  0  0  0
 10 11  1  1  0  0  0
 12 13  1  6  0  0  0
 12  7  1  0  0  0  0
 12 10  1  0  0  0  0
 14 13  1  0  0  0  0
 15 16  1  0  0  0  0
 15 14  2  0  0  0  0
 16 23  2  0  0  0  0
 17 16  1  0  0  0  0
 17 19  1  0  0  0  0
 18 17  2  0  0  0  0
 19 20  2  0  0  0  0
 20 22  1  0  0  0  0
 20 21  1  0  0  0  0
 23 13  1  0  0  0  0
 23 22  1  0  0  0  0
 24 25  2  1  0  0  0
 24  9  1  0  0  0  0
 24 26  1  0  0  0  0
 27 28  1  0  0  0  0
 27 24  1  0  0  0  0
 29 30  1  6  0  0  0
 29 28  1  0  0  0  0
 31 32  1  6  0  0  0
 31 29  1  0  0  0  0
 33 34  1  6  0  0  0
 33 35  1  0  0  0  0
 33 31  1  0  0  0  0
 35 36  1  1  0  0  0
 35 30  1  0  0  0  0
 36 37  1  0  0  0  0
 38 37  2  0  0  0  0
 39 38  1  0  0  0  0
 40 41  2  0  0  0  0
 40 39  1  0  0  0  0
 42 40  1  0  0  0  0
 43 42  2  0  0  0  0
 43 45  1  0  0  0  0
 44 43  1  0  0  0  0
 45 46  1  0  0  0  0
 46 39  2  0  0  0  0
 46 36  1  0  0  0  0
M  END
>  <CHROM.1>
172.90188478,1.70154849,158.16961647,43.60498275,144.24825488,-2.00530120
0.71247533,-2.19006746

>  <Name>
lig.pdb

>  <RI>
0

>  <Rbt.Current_Directory>
/home/itssahil/PROJECTS/Mol_Feturizer/New_Systems/rnas/4yb0

>  <Rbt.Executable>
rbdock ($Id: //depot/dev/client3/rdock/2013.1/src/exe/rbdock.cxx#4 $)

>  <Rbt.Library>
libRbt.so (2013.1, Build901 2013/11/27)

>  <Rbt.Parameter_File>
/export/apps/rDock/src/rDock_2013.1_src/data/scripts/dock_solv.prm

>  <Rbt.Receptor>
prm/pocket_docking_8.prm

>  <SCORE>
-48.3217

>  <SCORE.INTER>
-47.9904

>  <SCORE.INTER.CONST>
1

>  <SCORE.INTER.POLAR>
0

>  <SCORE.INTER.ROT>
2

>  <SCORE.INTER.SOLV>
28.0649

>  <SCORE.INTER.VDW>
-46.2819

>  <SCORE.INTER.norm>
-1.04327

>  <SCORE.INTRA>
-0.331291

>  <SCORE.INTRA.DIHEDRAL>
0.0464811

>  <SCORE.INTRA.DIHEDRAL.0>
4.74153

>  <SCORE.INTRA.POLAR>
0

>  <SCORE.INTRA.POLAR.0>
0

>  <SCORE.INTRA.REPUL>
0

>  <SCORE.INTRA.REPUL.0>
0

>  <SCORE.INTRA.SOLV>
0.688876

>  <SCORE.INTRA.SOLV.lig_0>
-60.4375

>  <SCORE.INTRA.VDW>
-0.698969

>  <SCORE.INTRA.VDW.0>
-1.83689

>  <SCORE.INTRA.norm>
-0.00720197

>  <SCORE.RESTR>
0

>  <SCORE.RESTR.CAVITY>
0

>  <SCORE.RESTR.norm>
0

>  <SCORE.SYSTEM>
0

>  <SCORE.SYSTEM.CONST>
0

>  <SCORE.SYSTEM.DIHEDRAL>
0

>  <SCORE.SYSTEM.SOLV>
0

>  <SCORE.SYSTEM.norm>
0

>  <SCORE.heavy>
46

>  <SCORE.norm>
-1.05047

>  <RMSD>
2.144

$$$$
lig.pdb
 OpenBabel11021811523D
libRbt.so/2013.1/901 2013/11/27
 46 52  0  0  0  0  0  0  0  0999 V2000
  160.0673   46.0028  143.6317 P   0  0  2  0  0  0  0  0  0  0  0  0
  160.7637   47.3262  143.8626 O   0  0  0  0  0  0  0  0  0  0  0  0
  159.2249   45.8886  142.3874 O   0  0  0  0  0  0  0  0  0  0  0  0
  159.1609   45.5913  144.8943 O   0  0  0  0  0  0  0  0  0  0  0  0
  159.2260   46.3057  146.1217 C   0  0  0  0  0  0  0  0  0  0  0  0
  158.5878   45.4890  147.2331 C   0  0  1  0  0  0  0  0  0  0  0  0
  157.3010   46.0314  147.4938 O   0  0  0  0  0  0  0  0  0  0  0  0
  158.3733   44.0122  146.9266 C   0  0  1  0  0  0  0  0  0  0  0  0
  159.3574   43.2374  147.5957 O   0  0  0  0  0  0  0  0  0  0  0  0
  157.0316   43.7129  147.5567 C   0  0  1  0  0  0  0  0  0  0  0  0
  157.2199   43.2916  148.9091 O   0  0  0  0  0  0  0  0  0  0  0  0
  156.3057   45.0259  147.6068 C   0  0  2  0  0  0  0  0  0  0  0  0
  155.3973   45.1248  146.4399 N   0  0  0  0  0  0  0  0  0  0  0  0
  154.4114   44.2617  146.1391 C   0  0  0  0  0  0  0  0  0  0  0  0
  153.7821   44.6345  144.9989 N   0  0  0  0  0  0  0  0  0  0  0  0
  154.3672   45.7585  144.5485 C   0  0  0  0  0  0  0  0  0  0  0  0
  154.1870   46.6731  143.3965 C   0  0  0  0  0  0  0  0  0  0  0  0
  153.2943   46.4484  142.5441 O   0  0  0  0  0  0  0  0  0  0  0  0
  155.0071   47.7338  143.3025 N   0  0  0  0  0  0  0  0  0  0  0  0
  155.9646   47.9697  144.2193 C   0  0  0  0  0  0  0  0  0  0  0  0
  156.7576   49.0550  144.0764 N   0  0  0  0  0  0  0  0  0  0  0  0
  156.1829   47.1765  145.2926 N   0  0  0  0  0  0  0  0  0  0  0  0
  155.4306   46.0760  145.5067 C   0  0  0  0  0  0  0  0  0  0  0  0
  159.6121   41.6631  147.2910 P   0  0  2  0  0  0  0  0  0  0  0  0
  158.2909   40.9336  147.3153 O   0  0  0  0  0  0  0  0  0  0  0  0
  160.7536   41.2396  148.1962 O   0  0  0  0  0  0  0  0  0  0  0  0
  160.1245   41.6856  145.7592 O   0  0  0  0  0  0  0  0  0  0  0  0
  161.4798   42.0196  145.4628 C   0  0  0  0  0  0  0  0  0  0  0  0
  161.6911   42.4456  144.0065 C   0  0  1  0  0  0  0  0  0  0  0  0
  161.6124   41.2955  143.1616 O   0  0  0  0  0  0  0  0  0  0  0  0
  160.6769   43.4555  143.4741 C   0  0  1  0  0  0  0  0  0  0  0  0
  161.1401   44.8001  143.5905 O   0  0  0  0  0  0  0  0  0  0  0  0
  160.5370   43.0375  142.0223 C   0  0  1  0  0  0  0  0  0  0  0  0
  161.5351   43.6662  141.2134 O   0  0  0  0  0  0  0  0  0  0  0  0
  160.8102   41.5480  142.0049 C   0  0  2  0  0  0  0  0  0  0  0  0
  159.5312   40.8076  142.1401 N   0  0  0  0  0  0  0  0  0  0  0  0
  159.1654   40.0570  143.1981 C   0  0  0  0  0  0  0  0  0  0  0  0
  157.9274   39.5140  143.0312 N   0  0  0  0  0  0  0  0  0  0  0  0
  157.4721   39.9267  141.8376 C   0  0  0  0  0  0  0  0  0  0  0  0
  156.2432   39.7186  141.0300 C   0  0  0  0  0  0  0  0  0  0  0  0
  155.2865   39.0234  141.4343 O   0  0  0  0  0  0  0  0  0  0  0  0
  156.1753   40.3274  139.8449 N   0  0  0  0  0  0  0  0  0  0  0  0
  157.1725   41.0889  139.3691 C   0  0  0  0  0  0  0  0  0  0  0  0
  157.0037   41.6422  138.1589 N   0  0  0  0  0  0  0  0  0  0  0  0
  158.3253   41.3188  140.0403 N   0  0  0  0  0  0  0  0  0  0  0  0
  158.5329   40.7746  141.2577 C   0  0  0  0  0  0  0  0  0  0  0  0
  1  3  2  6  0  0  0
  1 32  1  0  0  0  0
  1  2  1  0  0  0  0
  1  4  1  0  0  0  0
  4  5  1  0  0  0  0
  6  5  1  6  0  0  0
  7  6  1  0  0  0  0
  8  6  1  0  0  0  0
  8 10  1  0  0  0  0
  8  9  1  1  0  0  0
 10 11  1  1  0  0  0
 12 13  1  6  0  0  0
 12  7  1  0  0  0  0
 12 10  1  0  0  0  0
 14 13  1  0  0  0  0
 15 16  1  0  0  0  0
 15 14  2  0  0  0  0
 16 23  2  0  0  0  0
 17 16  1  0  0  0  0
 17 19  1  0  0  0  0
 18 17  2  0  0  0  0
 19 20  2  0  0  0  0
 20 22  1  0  0  0  0
 20 21  1  0  0  0  0
 23 13  1  0  0  0  0
 23 22  1  0  0  0  0
 24 25  2  1  0  0  0
 24  9  1  0  0  0  0
 24 26  1  0  0  0  0
 27 28  1  0  0  0  0
 27 24  1  0  0  0  0
 29 30  1  6  0  0  0
 29 28  1  0  0  0  0
 31 32  1  6  0  0  0
 31 29  1  0  0  0  0
 33 34  1  6  0  0  0
 33 35  1  0  0  0  0
 33 31  1  0  0  0  0
 35 36  1  1  0  0  0
 35 30  1  0  0  0  0
 36 37  1  0  0  0  0
 38 37  2  0  0  0  0
 39 38  1  0  0  0  0
 40 41  2  0  0  0  0
 40 39  1  0  0  0  0
 42 40  1  0  0  0  0
 43 42  2  0  0  0  0
 43 45  1  0  0  0  0
 44 43  1  0  0  0  0
 45 46  1  0  0  0  0
 46 39  2  0  0  0  0
 46 36  1  0  0  0  0
M  END
>  <CHROM.1>
173.41967698,2.05904466,158.17238039,43.60236491,144.23993938,-1.99831133
0.71051343,-2.18915759

>  <Name>
lig.pdb

>  <RI>
0

>  <Rbt.Current_Directory>
/home/itssahil/PROJECTS/Mol_Feturizer/New_Systems/rnas/4yb0

>  <Rbt.Executable>
rbdock ($Id: //depot/dev/client3/rdock/2013.1/src/exe/rbdock.cxx#4 $)

>  <Rbt.Library>
libRbt.so (2013.1, Build901 2013/11/27)

>  <Rbt.Parameter_File>
/export/apps/rDock/src/rDock_2013.1_src/data/scripts/dock_solv.prm

>  <Rbt.Receptor>
prm/pocket_docking_6.prm

>  <SCORE>
-48.3428

>  <SCORE.INTER>
-48.0136

>  <SCORE.INTER.CONST>
1

>  <SCORE.INTER.POLAR>
0

>  <SCORE.INTER.ROT>
2

>  <SCORE.INTER.SOLV>
28.0873

>  <SCORE.INTER.VDW>
-46.3049

>  <SCORE.INTER.norm>
-1.04377

>  <SCORE.INTRA>
-0.329193

>  <SCORE.INTRA.DIHEDRAL>
0.0487743

>  <SCORE.INTRA.DIHEDRAL.0>
4.74153

>  <SCORE.INTRA.POLAR>
0

>  <SCORE.INTRA.POLAR.0>
0

>  <SCORE.INTRA.REPUL>
0

>  <SCORE.INTRA.REPUL.0>
0

>  <SCORE.INTRA.SOLV>
0.741159

>  <SCORE.INTRA.SOLV.lig_0>
-60.4375

>  <SCORE.INTRA.VDW>
-0.72416

>  <SCORE.INTRA.VDW.0>
-1.83689

>  <SCORE.INTRA.norm>
-0.00715636

>  <SCORE.RESTR>
0

>  <SCORE.RESTR.CAVITY>
0

>  <SCORE.RESTR.norm>
0

>  <SCORE.SYSTEM>
0

>  <SCORE.SYSTEM.CONST>
0

>  <SCORE.SYSTEM.DIHEDRAL>
0

>  <SCORE.SYSTEM.SOLV>
0

>  <SCORE.SYSTEM.norm>
0

>  <SCORE.heavy>
46

>  <SCORE.norm>
-1.05093

>  <RMSD>
2.145

$$$$
lig.pdb
 OpenBabel11021811523D
libRbt.so/2013.1/901 2013/11/27
 46 52  0  0  0  0  0  0  0  0999 V2000
  160.0636   46.0045  143.6378 P   0  0  2  0  0  0  0  0  0  0  0  0
  160.7606   47.3275  143.8692 O   0  0  0  0  0  0  0  0  0  0  0  0
  159.2195   45.8916  142.3945 O   0  0  0  0  0  0  0  0  0  0  0  0
  159.1589   45.5917  144.9012 O   0  0  0  0  0  0  0  0  0  0  0  0
  159.2257   46.3049  146.1292 C   0  0  0  0  0  0  0  0  0  0  0  0
  158.5888   45.4871  147.2407 C   0  0  1  0  0  0  0  0  0  0  0  0
  157.3025   46.0295  147.5037 O   0  0  0  0  0  0  0  0  0  0  0  0
  158.3737   44.0107  146.9329 C   0  0  1  0  0  0  0  0  0  0  0  0
  159.3586   43.2350  147.5999 O   0  0  0  0  0  0  0  0  0  0  0  0
  157.0327   43.7109  147.5645 C   0  0  1  0  0  0  0  0  0  0  0  0
  157.2228   43.2882  148.9162 O   0  0  0  0  0  0  0  0  0  0  0  0
  156.3072   45.0240  147.6170 C   0  0  2  0  0  0  0  0  0  0  0  0
  155.3972   45.1243  146.4513 N   0  0  0  0  0  0  0  0  0  0  0  0
  154.4130   44.2598  146.1491 C   0  0  0  0  0  0  0  0  0  0  0  0
  153.7815   44.6345  145.0107 N   0  0  0  0  0  0  0  0  0  0  0  0
  154.3636   45.7612  144.5630 C   0  0  0  0  0  0  0  0  0  0  0  0
  154.1799   46.6788  143.4139 C   0  0  0  0  0  0  0  0  0  0  0  0
  153.2868   46.4546  142.5618 O   0  0  0  0  0  0  0  0  0  0  0  0
  154.9975   47.7417  143.3221 N   0  0  0  0  0  0  0  0  0  0  0  0
  155.9555   47.9770  144.2385 C   0  0  0  0  0  0  0  0  0  0  0  0
  156.7458   49.0647  144.0980 N   0  0  0  0  0  0  0  0  0  0  0  0
  156.1768   47.1812  145.3093 N   0  0  0  0  0  0  0  0  0  0  0  0
  155.4273   46.0783  145.5209 C   0  0  0  0  0  0  0  0  0  0  0  0
  159.6126   41.6610  147.2932 P   0  0  2  0  0  0  0  0  0  0  0  0
  158.2913   40.9317  147.3185 O   0  0  0  0  0  0  0  0  0  0  0  0
  160.7552   41.2363  148.1965 O   0  0  0  0  0  0  0  0  0  0  0  0
  160.1230   41.6850  145.7608 O   0  0  0  0  0  0  0  0  0  0  0  0
  161.4780   42.0191  145.4629 C   0  0  0  0  0  0  0  0  0  0  0  0
  161.6874   42.4465  144.0068 C   0  0  1  0  0  0  0  0  0  0  0  0
  161.6073   41.2974  143.1608 O   0  0  0  0  0  0  0  0  0  0  0  0
  160.6726   43.4571  143.4768 C   0  0  1  0  0  0  0  0  0  0  0  0
  161.1362   44.8016  143.5939 O   0  0  0  0  0  0  0  0  0  0  0  0
  160.5307   43.0407  142.0247 C   0  0  1  0  0  0  0  0  0  0  0  0
  161.5278   43.6701  141.2151 O   0  0  0  0  0  0  0  0  0  0  0  0
  160.8036   41.5512  142.0054 C   0  0  2  0  0  0  0  0  0  0  0  0
  159.5247   40.8108  142.1415 N   0  0  0  0  0  0  0  0  0  0  0  0
  159.1581   40.0631  143.2013 C   0  0  0  0  0  0  0  0  0  0  0  0
  157.9204   39.5194  143.0349 N   0  0  0  0  0  0  0  0  0  0  0  0
  157.4661   39.9286  141.8397 C   0  0  0  0  0  0  0  0  0  0  0  0
  156.2380   39.7180  141.0316 C   0  0  0  0  0  0  0  0  0  0  0  0
  155.2810   39.0237  141.4369 O   0  0  0  0  0  0  0  0  0  0  0  0
  156.1709   40.3234  139.8448 N   0  0  0  0  0  0  0  0  0  0  0  0
  157.1684   41.0838  139.3677 C   0  0  0  0  0  0  0  0  0  0  0  0
  157.0006   41.6338  138.1558 N   0  0  0  0  0  0  0  0  0  0  0  0
  158.3206   41.3159  140.0393 N   0  0  0  0  0  0  0  0  0  0  0  0
  158.5272   40.7752  141.2584 C   0  0  0  0  0  0  0  0  0  0  0  0
  1  3  2  6  0  0  0
  1 32  1  0  0  0  0
  1  2  1  0  0  0  0
  1  4  1  0  0  0  0
  4  5  1  0  0  0  0
  6  5  1  6  0  0  0
  7  6  1  0  0  0  0
  8  6  1  0  0  0  0
  8 10  1  0  0  0  0
  8  9  1  1  0  0  0
 10 11  1  1  0  0  0
 12 13  1  6  0  0  0
 12  7  1  0  0  0  0
 12 10  1  0  0  0  0
 14 13  1  0  0  0  0
 15 16  1  0  0  0  0
 15 14  2  0  0  0  0
 16 23  2  0  0  0  0
 17 16  1  0  0  0  0
 17 19  1  0  0  0  0
 18 17  2  0  0  0  0
 19 20  2  0  0  0  0
 20 22  1  0  0  0  0
 20 21  1  0  0  0  0
 23 13  1  0  0  0  0
 23 22  1  0  0  0  0
 24 25  2  1  0  0  0
 24  9  1  0  0  0  0
 24 26  1  0  0  0  0
 27 28  1  0  0  0  0
 27 24  1  0  0  0  0
 29 30  1  6  0  0  0
 29 28  1  0  0  0  0
 31 32  1  6  0  0  0
 31 29  1  0  0  0  0
 33 34  1  6  0  0  0
 33 35  1  0  0  0  0
 33 31  1  0  0  0  0
 35 36  1  1  0  0  0
 35 30  1  0  0  0  0
 36 37  1  0  0  0  0
 38 37  2  0  0  0  0
 39 38  1  0  0  0  0
 40 41  2  0  0  0  0
 40 39  1  0  0  0  0
 42 40  1  0  0  0  0
 43 42  2  0  0  0  0
 43 45  1  0  0  0  0
 44 43  1  0  0  0  0
 45 46  1  0  0  0  0
 46 39  2  0  0  0  0
 46 36  1  0  0  0  0
M  END
>  <CHROM.1>
173.23934119,2.31399892,158.16907920,43.60311832,144.24602884,-1.99639029
0.70965539,-2.18950014

>  <Name>
lig.pdb

>  <RI>
0

>  <Rbt.Current_Directory>
/home/itssahil/PROJECTS/Mol_Feturizer/New_Systems/rnas/4yb0

>  <Rbt.Executable>
rbdock ($Id: //depot/dev/client3/rdock/2013.1/src/exe/rbdock.cxx#4 $)

>  <Rbt.Library>
libRbt.so (2013.1, Build901 2013/11/27)

>  <Rbt.Parameter_File>
/export/apps/rDock/src/rDock_2013.1_src/data/scripts/dock_solv.prm

>  <Rbt.Receptor>
prm/pocket_docking_8.prm

>  <SCORE>
-48.3431

>  <SCORE.INTER>
-48.0113

>  <SCORE.INTER.CONST>
1

>  <SCORE.INTER.POLAR>
0

>  <SCORE.INTER.ROT>
2

>  <SCORE.INTER.SOLV>
28.0938

>  <SCORE.INTER.VDW>
-46.3055

>  <SCORE.INTER.norm>
-1.04372

>  <SCORE.INTRA>
-0.331757

>  <SCORE.INTRA.DIHEDRAL>
0.0491645

>  <SCORE.INTRA.DIHEDRAL.0>
4.74153

>  <SCORE.INTRA.POLAR>
0

>  <SCORE.INTRA.POLAR.0>
0

>  <SCORE.INTRA.REPUL>
0

>  <SCORE.INTRA.REPUL.0>
0

>  <SCORE.INTRA.SOLV>
0.721696

>  <SCORE.INTRA.SOLV.lig_0>
-60.4375

>  <SCORE.INTRA.VDW>
-0.717187

>  <SCORE.INTRA.VDW.0>
-1.83689

>  <SCORE.INTRA.norm>
-0.0072121

>  <SCORE.RESTR>
0

>  <SCORE.RESTR.CAVITY>
0

>  <SCORE.RESTR.norm>
0

>  <SCORE.SYSTEM>
0

>  <SCORE.SYSTEM.CONST>
0

>  <SCORE.SYSTEM.DIHEDRAL>
0

>  <SCORE.SYSTEM.SOLV>
0

>  <SCORE.SYSTEM.norm>
0

>  <SCORE.heavy>
46

>  <SCORE.norm>
-1.05094

>  <RMSD>
2.146

$$$$
lig.pdb
 OpenBabel11021811523D
libRbt.so/2013.1/901 2013/11/27
 46 52  0  0  0  0  0  0  0  0999 V2000
  160.0798   45.9833  143.6322 P   0  0  2  0  0  0  0  0  0  0  0  0
  160.7846   47.3020  143.8645 O   0  0  0  0  0  0  0  0  0  0  0  0
  159.2369   45.8756  142.3876 O   0  0  0  0  0  0  0  0  0  0  0  0
  159.1706   45.5762  144.8942 O   0  0  0  0  0  0  0  0  0  0  0  0
  159.2400   46.2890  146.1223 C   0  0  0  0  0  0  0  0  0  0  0  0
  158.5964   45.4752  147.2328 C   0  0  1  0  0  0  0  0  0  0  0  0
  157.3131   46.0255  147.4938 O   0  0  0  0  0  0  0  0  0  0  0  0
  158.3727   44.0002  146.9248 C   0  0  1  0  0  0  0  0  0  0  0  0
  159.3518   43.2185  147.5933 O   0  0  0  0  0  0  0  0  0  0  0  0
  157.0289   43.7086  147.5543 C   0  0  1  0  0  0  0  0  0  0  0  0
  157.2144   43.2848  148.9064 O   0  0  0  0  0  0  0  0  0  0  0  0
  156.3114   45.0262  147.6056 C   0  0  2  0  0  0  0  0  0  0  0  0
  155.4039   45.1320  146.4386 N   0  0  0  0  0  0  0  0  0  0  0  0
  154.4184   44.2704  146.1318 C   0  0  0  0  0  0  0  0  0  0  0  0
  153.7898   44.6500  144.9934 N   0  0  0  0  0  0  0  0  0  0  0  0
  154.3750   45.7770  144.5504 C   0  0  0  0  0  0  0  0  0  0  0  0
  154.1954   46.6986  143.4039 C   0  0  0  0  0  0  0  0  0  0  0  0
  153.3034   46.4788  142.5494 O   0  0  0  0  0  0  0  0  0  0  0  0
  155.0153   47.7600  143.3170 N   0  0  0  0  0  0  0  0  0  0  0  0
  155.9721   47.9905  144.2359 C   0  0  0  0  0  0  0  0  0  0  0  0
  156.7649   49.0770  144.1003 N   0  0  0  0  0  0  0  0  0  0  0  0
  156.1897   47.1909  145.3045 N   0  0  0  0  0  0  0  0  0  0  0  0
  155.4376   46.0888  145.5113 C   0  0  0  0  0  0  0  0  0  0  0  0
  159.5965   41.6429  147.2871 P   0  0  2  0  0  0  0  0  0  0  0  0
  158.2708   40.9217  147.3104 O   0  0  0  0  0  0  0  0  0  0  0  0
  160.7352   41.2113  148.1921 O   0  0  0  0  0  0  0  0  0  0  0  0
  160.1094   41.6637  145.7554 O   0  0  0  0  0  0  0  0  0  0  0  0
  161.4669   41.9894  145.4595 C   0  0  0  0  0  0  0  0  0  0  0  0
  161.6811   42.4155  144.0038 C   0  0  1  0  0  0  0  0  0  0  0  0
  161.5953   41.2668  143.1576 O   0  0  0  0  0  0  0  0  0  0  0  0
  160.6734   43.4323  143.4722 C   0  0  1  0  0  0  0  0  0  0  0  0
  161.1450   44.7739  143.5900 O   0  0  0  0  0  0  0  0  0  0  0  0
  160.5311   43.0166  142.0199 C   0  0  1  0  0  0  0  0  0  0  0  0
  161.5333   43.6398  141.2118 O   0  0  0  0  0  0  0  0  0  0  0  0
  160.7949   41.5255  142.0011 C   0  0  2  0  0  0  0  0  0  0  0  0
  159.5112   40.7930  142.1353 N   0  0  0  0  0  0  0  0  0  0  0  0
  159.1397   40.0451  143.1932 C   0  0  0  0  0  0  0  0  0  0  0  0
  157.8986   39.5098  143.0254 N   0  0  0  0  0  0  0  0  0  0  0  0
  157.4471   39.9247  141.8311 C   0  0  0  0  0  0  0  0  0  0  0  0
  156.2177   39.7239  141.0224 C   0  0  0  0  0  0  0  0  0  0  0  0
  155.2563   39.0348  141.4260 O   0  0  0  0  0  0  0  0  0  0  0  0
  156.1547   40.3325  139.8370 N   0  0  0  0  0  0  0  0  0  0  0  0
  157.1571   41.0876  139.3618 C   0  0  0  0  0  0  0  0  0  0  0  0
  156.9929   41.6415  138.1512 N   0  0  0  0  0  0  0  0  0  0  0  0
  158.3106   41.3107  140.0341 N   0  0  0  0  0  0  0  0  0  0  0  0
  158.5136   40.7658  141.2519 C   0  0  0  0  0  0  0  0  0  0  0  0
  1  3  2  6  0  0  0
  1 32  1  0  0  0  0
  1  2  1  0  0  0  0
  1  4  1  0  0  0  0
  4  5  1  0  0  0  0
  6  5  1  6  0  0  0
  7  6  1  0  0  0  0
  8  6  1  0  0  0  0
  8 10  1  0  0  0  0
  8  9  1  1  0  0  0
 10 11  1  1  0  0  0
 12 13  1  6  0  0  0
 12  7  1  0  0  0  0
 12 10  1  0  0  0  0
 14 13  1  0  0  0  0
 15 16  1  0  0  0  0
 15 14  2  0  0  0  0
 16 23  2  0  0  0  0
 17 16  1  0  0  0  0
 17 19  1  0  0  0  0
 18 17  2  0  0  0  0
 19 20  2  0  0  0  0
 20 22  1  0  0  0  0
 20 21  1  0  0  0  0
 23 13  1  0  0  0  0
 23 22  1  0  0  0  0
 24 25  2  1  0  0  0
 24  9  1  0  0  0  0
 24 26  1  0  0  0  0
 27 28  1  0  0  0  0
 27 24  1  0  0  0  0
 29 30  1  6  0  0  0
 29 28  1  0  0  0  0
 31 32  1  6  0  0  0
 31 29  1  0  0  0  0
 33 34  1  6  0  0  0
 33 35  1  0  0  0  0
 33 31  1  0  0  0  0
 35 36  1  1  0  0  0
 35 30  1  0  0  0  0
 36 37  1  0  0  0  0
 38 37  2  0  0  0  0
 39 38  1  0  0  0  0
 40 41  2  0  0  0  0
 40 39  1  0  0  0  0
 42 40  1  0  0  0  0
 43 42  2  0  0  0  0
 43 45  1  0  0  0  0
 44 43  1  0  0  0  0
 45 46  1  0  0  0  0
 46 39  2  0  0  0  0
 46 36  1  0  0  0  0
M  END
>  <CHROM.1>
172.94013252,2.15358908,158.16823017,43.59529425,144.23887477,-1.99642877
0.71508246,-2.19172195

>  <Name>
lig.pdb

>  <RI>
0

>  <Rbt.Current_Directory>
/home/itssahil/PROJECTS/Mol_Feturizer/New_Systems/rnas/4yb0

>  <Rbt.Executable>
rbdock ($Id: //depot/dev/client3/rdock/2013.1/src/exe/rbdock.cxx#4 $)

>  <Rbt.Library>
libRbt.so (2013.1, Build901 2013/11/27)

>  <Rbt.Parameter_File>
/export/apps/rDock/src/rDock_2013.1_src/data/scripts/dock_solv.prm

>  <Rbt.Receptor>
prm/pocket_docking_5.prm

>  <SCORE>
-48.3241

>  <SCORE.INTER>
-47.9917

>  <SCORE.INTER.CONST>
1

>  <SCORE.INTER.POLAR>
0

>  <SCORE.INTER.ROT>
2

>  <SCORE.INTER.SOLV>
28.1709

>  <SCORE.INTER.VDW>
-46.3181

>  <SCORE.INTER.norm>
-1.0433

>  <SCORE.INTRA>
-0.332369

>  <SCORE.INTRA.DIHEDRAL>
0.0479859

>  <SCORE.INTRA.DIHEDRAL.0>
4.74153

>  <SCORE.INTRA.POLAR>
0

>  <SCORE.INTRA.POLAR.0>
0

>  <SCORE.INTRA.REPUL>
0

>  <SCORE.INTRA.REPUL.0>
0

>  <SCORE.INTRA.SOLV>
0.693036

>  <SCORE.INTRA.SOLV.lig_0>
-60.4375

>  <SCORE.INTRA.VDW>
-0.70288

>  <SCORE.INTRA.VDW.0>
-1.83689

>  <SCORE.INTRA.norm>
-0.00722541

>  <SCORE.RESTR>
0

>  <SCORE.RESTR.CAVITY>
0

>  <SCORE.RESTR.norm>
0

>  <SCORE.SYSTEM>
0

>  <SCORE.SYSTEM.CONST>
0

>  <SCORE.SYSTEM.DIHEDRAL>
0

>  <SCORE.SYSTEM.SOLV>
0

>  <SCORE.SYSTEM.norm>
0

>  <SCORE.heavy>
46

>  <SCORE.norm>
-1.05052

>  <RMSD>
2.150

$$$$
lig.pdb
 OpenBabel11021811523D
libRbt.so/2013.1/901 2013/11/27
 46 52  0  0  0  0  0  0  0  0999 V2000
  159.9952   46.0003  143.6576 P   0  0  2  0  0  0  0  0  0  0  0  0
  160.6785   47.3306  143.8878 O   0  0  0  0  0  0  0  0  0  0  0  0
  159.1422   45.8817  142.4210 O   0  0  0  0  0  0  0  0  0  0  0  0
  159.1059   45.5727  144.9270 O   0  0  0  0  0  0  0  0  0  0  0  0
  159.1746   46.2824  146.1569 C   0  0  0  0  0  0  0  0  0  0  0  0
  158.5567   45.4535  147.2708 C   0  0  1  0  0  0  0  0  0  0  0  0
  157.2663   45.9798  147.5463 O   0  0  0  0  0  0  0  0  0  0  0  0
  158.3564   43.9757  146.9597 C   0  0  1  0  0  0  0  0  0  0  0  0
  159.3558   43.2094  147.6158 O   0  0  0  0  0  0  0  0  0  0  0  0
  157.0243   43.6579  147.6013 C   0  0  1  0  0  0  0  0  0  0  0  0
  157.2306   43.2329  148.9499 O   0  0  0  0  0  0  0  0  0  0  0  0
  156.2838   44.9622  147.6644 C   0  0  2  0  0  0  0  0  0  0  0  0
  155.3631   45.0557  146.5066 N   0  0  0  0  0  0  0  0  0  0  0  0
  154.2603   44.3096  146.3205 C   0  0  0  0  0  0  0  0  0  0  0  0
  153.6540   44.6369  145.1541 N   0  0  0  0  0  0  0  0  0  0  0  0
  154.3732   45.6116  144.5699 C   0  0  0  0  0  0  0  0  0  0  0  0
  154.2851   46.4084  143.3235 C   0  0  0  0  0  0  0  0  0  0  0  0
  153.3452   46.2162  142.5151 O   0  0  0  0  0  0  0  0  0  0  0  0
  155.2390   47.3279  143.0973 N   0  0  0  0  0  0  0  0  0  0  0  0
  156.2466   47.5291  143.9674 C   0  0  0  0  0  0  0  0  0  0  0  0
  157.1755   48.4712  143.6902 N   0  0  0  0  0  0  0  0  0  0  0  0
  156.3865   46.8379  145.1213 N   0  0  0  0  0  0  0  0  0  0  0  0
  155.4980   45.8831  145.4704 C   0  0  0  0  0  0  0  0  0  0  0  0
  159.6258   41.6395  147.3015 P   0  0  2  0  0  0  0  0  0  0  0  0
  158.3135   40.8946  147.3353 O   0  0  0  0  0  0  0  0  0  0  0  0
  160.7808   41.2253  148.1938 O   0  0  0  0  0  0  0  0  0  0  0  0
  160.1230   41.6747  145.7650 O   0  0  0  0  0  0  0  0  0  0  0  0
  161.4715   42.0257  145.4571 C   0  0  0  0  0  0  0  0  0  0  0  0
  161.6637   42.4605  144.0008 C   0  0  1  0  0  0  0  0  0  0  0  0
  161.5901   41.3134  143.1515 O   0  0  0  0  0  0  0  0  0  0  0  0
  160.6328   43.4609  143.4827 C   0  0  1  0  0  0  0  0  0  0  0  0
  161.0814   44.8103  143.6007 O   0  0  0  0  0  0  0  0  0  0  0  0
  160.4836   43.0477  142.0305 C   0  0  1  0  0  0  0  0  0  0  0  0
  161.4665   43.6915  141.2148 O   0  0  0  0  0  0  0  0  0  0  0  0
  160.7739   41.5616  142.0037 C   0  0  2  0  0  0  0  0  0  0  0  0
  159.5050   40.8057  142.1479 N   0  0  0  0  0  0  0  0  0  0  0  0
  159.1533   40.0553  143.2107 C   0  0  0  0  0  0  0  0  0  0  0  0
  157.9215   39.4961  143.0519 N   0  0  0  0  0  0  0  0  0  0  0  0
  157.4558   39.8977  141.8585 C   0  0  0  0  0  0  0  0  0  0  0  0
  156.2261   39.6707  141.0573 C   0  0  0  0  0  0  0  0  0  0  0  0
  155.2800   38.9653  141.4689 O   0  0  0  0  0  0  0  0  0  0  0  0
  156.1452   40.2733  139.8699 N   0  0  0  0  0  0  0  0  0  0  0  0
  157.1307   41.0451  139.3863 C   0  0  0  0  0  0  0  0  0  0  0  0
  156.9495   41.5910  138.1745 N   0  0  0  0  0  0  0  0  0  0  0  0
  158.2834   41.2925  140.0513 N   0  0  0  0  0  0  0  0  0  0  0  0
  158.5032   40.7564  141.2701 C   0  0  0  0  0  0  0  0  0  0  0  0
  1  3  2  6  0  0  0
  1 32  1  0  0  0  0
  1  2  1  0  0  0  0
  1  4  1  0  0  0  0
  4  5  1  0  0  0  0
  6  5  1  6  0  0  0
  7  6  1  0  0  0  0
  8  6  1  0  0  0  0
  8 10  1  0  0  0  0
  8  9  1  1  0  0  0
 10 11  1  1  0  0  0
 12 13  1  6  0  0  0
 12  7  1  0  0  0  0
 12 10  1  0  0  0  0
 14 13  1  0  0  0  0
 15 16  1  0  0  0  0
 15 14  2  0  0  0  0
 16 23  2  0  0  0  0
 17 16  1  0  0  0  0
 17 19  1  0  0  0  0
 18 17  2  0  0  0  0
 19 20  2  0  0  0  0
 20 22  1  0  0  0  0
 20 21  1  0  0  0  0
 23 13  1  0  0  0  0
 23 22  1  0  0  0  0
 24 25  2  1  0  0  0
 24  9  1  0  0  0  0
 24 26  1  0  0  0  0
 27 28  1  0  0  0  0
 27 24  1  0  0  0  0
 29 30  1  6  0  0  0
 29 28  1  0  0  0  0
 31 32  1  6  0  0  0
 31 29  1  0  0  0  0
 33 34  1  6  0  0  0
 33 35  1  0  0  0  0
 33 31  1  0  0  0  0
 35 36  1  1  0  0  0
 35 30  1  0  0  0  0
 36 37  1  0  0  0  0
 38 37  2  0  0  0  0
 39 38  1  0  0  0  0
 40 41  2  0  0  0  0
 40 39  1  0  0  0  0
 42 40  1  0  0  0  0
 43 42  2  0  0  0  0
 43 45  1  0  0  0  0
 44 43  1  0  0  0  0
 45 46  1  0  0  0  0
 46 39  2  0  0  0  0
 46 36  1  0  0  0  0
M  END
>  <CHROM.1>
-175.62949815,2.64877441,158.17074428,43.53533108,144.24085176,-1.90727943
0.69999824,-2.17265301

>  <Name>
lig.pdb

>  <RI>
0

>  <Rbt.Current_Directory>
/home/itssahil/PROJECTS/Mol_Feturizer/New_Systems/rnas/4yb0

>  <Rbt.Executable>
rbdock ($Id: //depot/dev/client3/rdock/2013.1/src/exe/rbdock.cxx#4 $)

>  <Rbt.Library>
libRbt.so (2013.1, Build901 2013/11/27)

>  <Rbt.Parameter_File>
/export/apps/rDock/src/rDock_2013.1_src/data/scripts/dock_solv.prm

>  <Rbt.Receptor>
prm/pocket_docking_8.prm

>  <SCORE>
-47.8645

>  <SCORE.INTER>
-47.6683

>  <SCORE.INTER.CONST>
1

>  <SCORE.INTER.POLAR>
0

>  <SCORE.INTER.ROT>
2

>  <SCORE.INTER.SOLV>
27.2961

>  <SCORE.INTER.VDW>
-45.8109

>  <SCORE.INTER.norm>
-1.03627

>  <SCORE.INTRA>
-0.196177

>  <SCORE.INTRA.DIHEDRAL>
0.0765028

>  <SCORE.INTRA.DIHEDRAL.0>
4.74153

>  <SCORE.INTRA.POLAR>
0

>  <SCORE.INTRA.POLAR.0>
0

>  <SCORE.INTRA.REPUL>
0

>  <SCORE.INTRA.REPUL.0>
0

>  <SCORE.INTRA.SOLV>
2.38821

>  <SCORE.INTRA.SOLV.lig_0>
-60.4375

>  <SCORE.INTRA.VDW>
-1.42853

>  <SCORE.INTRA.VDW.0>
-1.83689

>  <SCORE.INTRA.norm>
-0.00426471

>  <SCORE.RESTR>
0

>  <SCORE.RESTR.CAVITY>
0

>  <SCORE.RESTR.norm>
0

>  <SCORE.SYSTEM>
0

>  <SCORE.SYSTEM.CONST>
0

>  <SCORE.SYSTEM.DIHEDRAL>
0

>  <SCORE.SYSTEM.SOLV>
0

>  <SCORE.SYSTEM.norm>
0

>  <SCORE.heavy>
46

>  <SCORE.norm>
-1.04053

>  <RMSD>
2.151

$$$$
lig.pdb
 OpenBabel11021811523D
libRbt.so/2013.1/901 2013/11/27
 46 52  0  0  0  0  0  0  0  0999 V2000
  160.1048   45.9911  143.6615 P   0  0  2  0  0  0  0  0  0  0  0  0
  160.8160   47.3044  143.9047 O   0  0  0  0  0  0  0  0  0  0  0  0
  159.2671   45.8954  142.4124 O   0  0  0  0  0  0  0  0  0  0  0  0
  159.1876   45.5818  144.9170 O   0  0  0  0  0  0  0  0  0  0  0  0
  159.2553   46.2871  146.1495 C   0  0  0  0  0  0  0  0  0  0  0  0
  158.6021   45.4705  147.2523 C   0  0  1  0  0  0  0  0  0  0  0  0
  157.3207   46.0266  147.5107 O   0  0  0  0  0  0  0  0  0  0  0  0
  158.3714   43.9986  146.9347 C   0  0  1  0  0  0  0  0  0  0  0  0
  159.3430   43.2075  147.6031 O   0  0  0  0  0  0  0  0  0  0  0  0
  157.0232   43.7110  147.5564 C   0  0  1  0  0  0  0  0  0  0  0  0
  157.2000   43.2784  148.9068 O   0  0  0  0  0  0  0  0  0  0  0  0
  156.3129   45.0323  147.6121 C   0  0  2  0  0  0  0  0  0  0  0  0
  155.4113   45.1501  146.4416 N   0  0  0  0  0  0  0  0  0  0  0  0
  154.4316   44.2883  146.1175 C   0  0  0  0  0  0  0  0  0  0  0  0
  153.8076   44.6807  144.9809 N   0  0  0  0  0  0  0  0  0  0  0  0
  154.3900   45.8163  144.5567 C   0  0  0  0  0  0  0  0  0  0  0  0
  154.2124   46.7528  143.4220 C   0  0  0  0  0  0  0  0  0  0  0  0
  153.3262   46.5408  142.5596 O   0  0  0  0  0  0  0  0  0  0  0  0
  155.0278   47.8191  143.3543 N   0  0  0  0  0  0  0  0  0  0  0  0
  155.9784   48.0413  144.2816 C   0  0  0  0  0  0  0  0  0  0  0  0
  156.7669   49.1331  144.1654 N   0  0  0  0  0  0  0  0  0  0  0  0
  156.1939   47.2280  145.3404 N   0  0  0  0  0  0  0  0  0  0  0  0
  155.4458   46.1197  145.5278 C   0  0  0  0  0  0  0  0  0  0  0  0
  159.5802   41.6323  147.2888 P   0  0  2  0  0  0  0  0  0  0  0  0
  158.2504   40.9186  147.3018 O   0  0  0  0  0  0  0  0  0  0  0  0
  160.7123   41.1890  148.1965 O   0  0  0  0  0  0  0  0  0  0  0  0
  160.1002   41.6591  145.7596 O   0  0  0  0  0  0  0  0  0  0  0  0
  161.4609   41.9788  145.4719 C   0  0  0  0  0  0  0  0  0  0  0  0
  161.6842   42.4121  144.0196 C   0  0  1  0  0  0  0  0  0  0  0  0
  161.5958   41.2689  143.1664 O   0  0  0  0  0  0  0  0  0  0  0  0
  160.6847   43.4377  143.4894 C   0  0  1  0  0  0  0  0  0  0  0  0
  161.1634   44.7759  143.6171 O   0  0  0  0  0  0  0  0  0  0  0  0
  160.5467   43.0312  142.0341 C   0  0  1  0  0  0  0  0  0  0  0  0
  161.5561   43.6534  141.2342 O   0  0  0  0  0  0  0  0  0  0  0  0
  160.8021   41.5387  142.0077 C   0  0  2  0  0  0  0  0  0  0  0  0
  159.5138   40.8128  142.1318 N   0  0  0  0  0  0  0  0  0  0  0  0
  159.1345   40.0586  143.1824 C   0  0  0  0  0  0  0  0  0  0  0  0
  157.8907   39.5319  143.0062 N   0  0  0  0  0  0  0  0  0  0  0  0
  157.4456   39.9593  141.8140 C   0  0  0  0  0  0  0  0  0  0  0  0
  156.2177   39.7723  140.9997 C   0  0  0  0  0  0  0  0  0  0  0  0
  155.2509   39.0857  141.3945 O   0  0  0  0  0  0  0  0  0  0  0  0
  156.1621   40.3910  139.8191 N   0  0  0  0  0  0  0  0  0  0  0  0
  157.1705   41.1441  139.3533 C   0  0  0  0  0  0  0  0  0  0  0  0
  157.0135   41.7088  138.1468 N   0  0  0  0  0  0  0  0  0  0  0  0
  158.3231   41.3548  140.0311 N   0  0  0  0  0  0  0  0  0  0  0  0
  158.5189   40.7988  141.2451 C   0  0  0  0  0  0  0  0  0  0  0  0
  1  3  2  6  0  0  0
  1 32  1  0  0  0  0
  1  2  1  0  0  0  0
  1  4  1  0  0  0  0
  4  5  1  0  0  0  0
  6  5  1  6  0  0  0
  7  6  1  0  0  0  0
  8  6  1  0  0  0  0
  8 10  1  0  0  0  0
  8  9  1  1  0  0  0
 10 11  1  1  0  0  0
 12 13  1  6  0  0  0
 12  7  1  0  0  0  0
 12 10  1  0  0  0  0
 14 13  1  0  0  0  0
 15 16  1  0  0  0  0
 15 14  2  0  0  0  0
 16 23  2  0  0  0  0
 17 16  1  0  0  0  0
 17 19  1  0  0  0  0
 18 17  2  0  0  0  0
 19 20  2  0  0  0  0
 20 22  1  0  0  0  0
 20 21  1  0  0  0  0
 23 13  1  0  0  0  0
 23 22  1  0  0  0  0
 24 25  2  1  0  0  0
 24  9  1  0  0  0  0
 24 26  1  0  0  0  0
 27 28  1  0  0  0  0
 27 24  1  0  0  0  0
 29 30  1  6  0  0  0
 29 28  1  0  0  0  0
 31 32  1  6  0  0  0
 31 29  1  0  0  0  0
 33 34  1  6  0  0  0
 33 35  1  0  0  0  0
 33 31  1  0  0  0  0
 35 36  1  1  0  0  0
 35 30  1  0  0  0  0
 36 37  1  0  0  0  0
 38 37  2  0  0  0  0
 39 38  1  0  0  0  0
 40 41  2  0  0  0  0
 40 39  1  0  0  0  0
 42 40  1  0  0  0  0
 43 42  2  0  0  0  0
 43 45  1  0  0  0  0
 44 43  1  0  0  0  0
 45 46  1  0  0  0  0
 46 39  2  0  0  0  0
 46 36  1  0  0  0  0
M  END
>  <CHROM.1>
172.19335581,1.99722233,158.17407207,43.61338200,144.24816746,-2.00322058
0.72118484,-2.18606853

>  <Name>
lig.pdb

>  <RI>
0

>  <Rbt.Current_Directory>
/home/itssahil/PROJECTS/Mol_Feturizer/New_Systems/rnas/4yb0

>  <Rbt.Executable>
rbdock ($Id: //depot/dev/client3/rdock/2013.1/src/exe/rbdock.cxx#4 $)

>  <Rbt.Library>
libRbt.so (2013.1, Build901 2013/11/27)

>  <Rbt.Parameter_File>
/export/apps/rDock/src/rDock_2013.1_src/data/scripts/dock_solv.prm

>  <Rbt.Receptor>
prm/pocket_docking_5.prm

>  <SCORE>
-48.2872

>  <SCORE.INTER>
-47.9639

>  <SCORE.INTER.CONST>
1

>  <SCORE.INTER.POLAR>
0

>  <SCORE.INTER.ROT>
2

>  <SCORE.INTER.SOLV>
28.0774

>  <SCORE.INTER.VDW>
-46.2684

>  <SCORE.INTER.norm>
-1.04269

>  <SCORE.INTRA>
-0.323211

>  <SCORE.INTRA.DIHEDRAL>
0.0458259

>  <SCORE.INTRA.DIHEDRAL.0>
4.74153

>  <SCORE.INTRA.POLAR>
0

>  <SCORE.INTRA.POLAR.0>
0

>  <SCORE.INTRA.REPUL>
0

>  <SCORE.INTRA.REPUL.0>
0

>  <SCORE.INTRA.SOLV>
0.645056

>  <SCORE.INTRA.SOLV.lig_0>
-60.4375

>  <SCORE.INTRA.VDW>
-0.668652

>  <SCORE.INTRA.VDW.0>
-1.83689

>  <SCORE.INTRA.norm>
-0.00702632

>  <SCORE.RESTR>
0

>  <SCORE.RESTR.CAVITY>
0

>  <SCORE.RESTR.norm>
0

>  <SCORE.SYSTEM>
0

>  <SCORE.SYSTEM.CONST>
0

>  <SCORE.SYSTEM.DIHEDRAL>
0

>  <SCORE.SYSTEM.SOLV>
0

>  <SCORE.SYSTEM.norm>
0

>  <SCORE.heavy>
46

>  <SCORE.norm>
-1.04972

>  <RMSD>
2.156

$$$$
lig.pdb
 OpenBabel11021811523D
libRbt.so/2013.1/901 2013/11/27
 46 52  0  0  0  0  0  0  0  0999 V2000
  160.0874   45.9957  143.6644 P   0  0  2  0  0  0  0  0  0  0  0  0
  160.7942   47.3117  143.9062 O   0  0  0  0  0  0  0  0  0  0  0  0
  159.2448   45.8981  142.4189 O   0  0  0  0  0  0  0  0  0  0  0  0
  159.1772   45.5812  144.9233 O   0  0  0  0  0  0  0  0  0  0  0  0
  159.2474   46.2852  146.1564 C   0  0  0  0  0  0  0  0  0  0  0  0
  158.6022   45.4647  147.2610 C   0  0  1  0  0  0  0  0  0  0  0  0
  157.3196   46.0151  147.5255 O   0  0  0  0  0  0  0  0  0  0  0  0
  158.3762   43.9922  146.9425 C   0  0  1  0  0  0  0  0  0  0  0  0
  159.3539   43.2043  147.6058 O   0  0  0  0  0  0  0  0  0  0  0  0
  157.0319   43.6983  147.5696 C   0  0  1  0  0  0  0  0  0  0  0  0
  157.2162   43.2647  148.9187 O   0  0  0  0  0  0  0  0  0  0  0  0
  156.3163   45.0166  147.6300 C   0  0  2  0  0  0  0  0  0  0  0  0
  155.4093   45.1320  146.4635 N   0  0  0  0  0  0  0  0  0  0  0  0
  154.4110   44.2841  146.1604 C   0  0  0  0  0  0  0  0  0  0  0  0
  153.7870   44.6692  145.0213 N   0  0  0  0  0  0  0  0  0  0  0  0
  154.3883   45.7860  144.5741 C   0  0  0  0  0  0  0  0  0  0  0  0
  154.2211   46.7065  143.4249 C   0  0  0  0  0  0  0  0  0  0  0  0
  153.3251   46.4972  142.5719 O   0  0  0  0  0  0  0  0  0  0  0  0
  155.0564   47.7555  143.3338 N   0  0  0  0  0  0  0  0  0  0  0  0
  156.0174   47.9749  144.2511 C   0  0  0  0  0  0  0  0  0  0  0  0
  156.8259   49.0491  144.1113 N   0  0  0  0  0  0  0  0  0  0  0  0
  156.2243   47.1755  145.3221 N   0  0  0  0  0  0  0  0  0  0  0  0
  155.4563   46.0853  145.5331 C   0  0  0  0  0  0  0  0  0  0  0  0
  159.5963   41.6305  147.2886 P   0  0  2  0  0  0  0  0  0  0  0  0
  158.2695   40.9112  147.3064 O   0  0  0  0  0  0  0  0  0  0  0  0
  160.7340   41.1907  148.1909 O   0  0  0  0  0  0  0  0  0  0  0  0
  160.1096   41.6612  145.7573 O   0  0  0  0  0  0  0  0  0  0  0  0
  161.4677   41.9869  145.4641 C   0  0  0  0  0  0  0  0  0  0  0  0
  161.6831   42.4229  144.0114 C   0  0  1  0  0  0  0  0  0  0  0  0
  161.5957   41.2803  143.1572 O   0  0  0  0  0  0  0  0  0  0  0  0
  160.6771   43.4450  143.4867 C   0  0  1  0  0  0  0  0  0  0  0  0
  161.1508   44.7850  143.6140 O   0  0  0  0  0  0  0  0  0  0  0  0
  160.5346   43.0397  142.0315 C   0  0  1  0  0  0  0  0  0  0  0  0
  161.5380   43.6670  141.2281 O   0  0  0  0  0  0  0  0  0  0  0  0
  160.7960   41.5483  142.0023 C   0  0  2  0  0  0  0  0  0  0  0  0
  159.5113   40.8170  142.1310 N   0  0  0  0  0  0  0  0  0  0  0  0
  159.1331   40.0723  143.1888 C   0  0  0  0  0  0  0  0  0  0  0  0
  157.8926   39.5371  143.0151 N   0  0  0  0  0  0  0  0  0  0  0  0
  157.4484   39.9489  141.8171 C   0  0  0  0  0  0  0  0  0  0  0  0
  156.2238   39.7464  141.0016 C   0  0  0  0  0  0  0  0  0  0  0  0
  155.2596   39.0590  141.4015 O   0  0  0  0  0  0  0  0  0  0  0  0
  156.1681   40.3517  139.8141 N   0  0  0  0  0  0  0  0  0  0  0  0
  157.1738   41.1049  139.3427 C   0  0  0  0  0  0  0  0  0  0  0  0
  157.0171   41.6554  138.1296 N   0  0  0  0  0  0  0  0  0  0  0  0
  158.3234   41.3293  140.0212 N   0  0  0  0  0  0  0  0  0  0  0  0
  158.5189   40.7878  141.2418 C   0  0  0  0  0  0  0  0  0  0  0  0
  1  3  2  6  0  0  0
  1 32  1  0  0  0  0
  1  2  1  0  0  0  0
  1  4  1  0  0  0  0
  4  5  1  0  0  0  0
  6  5  1  6  0  0  0
  7  6  1  0  0  0  0
  8  6  1  0  0  0  0
  8 10  1  0  0  0  0
  8  9  1  1  0  0  0
 10 11  1  1  0  0  0
 12 13  1  6  0  0  0
 12  7  1  0  0  0  0
 12 10  1  0  0  0  0
 14 13  1  0  0  0  0
 15 16  1  0  0  0  0
 15 14  2  0  0  0  0
 16 23  2  0  0  0  0
 17 16  1  0  0  0  0
 17 19  1  0  0  0  0
 18 17  2  0  0  0  0
 19 20  2  0  0  0  0
 20 22  1  0  0  0  0
 20 21  1  0  0  0  0
 23 13  1  0  0  0  0
 23 22  1  0  0  0  0
 24 25  2  1  0  0  0
 24  9  1  0  0  0  0
 24 26  1  0  0  0  0
 27 28  1  0  0  0  0
 27 24  1  0  0  0  0
 29 30  1  6  0  0  0
 29 28  1  0  0  0  0
 31 32  1  6  0  0  0
 31 29  1  0  0  0  0
 33 34  1  6  0  0  0
 33 35  1  0  0  0  0
 33 31  1  0  0  0  0
 35 36  1  1  0  0  0
 35 30  1  0  0  0  0
 36 37  1  0  0  0  0
 38 37  2  0  0  0  0
 39 38  1  0  0  0  0
 40 41  2  0  0  0  0
 40 39  1  0  0  0  0
 42 40  1  0  0  0  0
 43 42  2  0  0  0  0
 43 45  1  0  0  0  0
 44 43  1  0  0  0  0
 45 46  1  0  0  0  0
 46 39  2  0  0  0  0
 46 36  1  0  0  0  0
M  END
>  <CHROM.1>
173.89665746,2.80812589,158.17671579,43.60073355,144.24937713,-1.98468552
0.71794325,-2.18489728

>  <Name>
lig.pdb

>  <RI>
0

>  <Rbt.Current_Directory>
/home/itssahil/PROJECTS/Mol_Feturizer/New_Systems/rnas/4yb0

>  <Rbt.Executable>
rbdock ($Id: //depot/dev/client3/rdock/2013.1/src/exe/rbdock.cxx#4 $)

>  <Rbt.Library>
libRbt.so (2013.1, Build901 2013/11/27)

>  <Rbt.Parameter_File>
/export/apps/rDock/src/rDock_2013.1_src/data/scripts/dock_solv.prm

>  <Rbt.Receptor>
prm/pocket_docking_5.prm

>  <SCORE>
-48.2585

>  <SCORE.INTER>
-47.9342

>  <SCORE.INTER.CONST>
1

>  <SCORE.INTER.POLAR>
0

>  <SCORE.INTER.ROT>
2

>  <SCORE.INTER.SOLV>
27.9687

>  <SCORE.INTER.VDW>
-46.2124

>  <SCORE.INTER.norm>
-1.04205

>  <SCORE.INTRA>
-0.324289

>  <SCORE.INTRA.DIHEDRAL>
0.0522078

>  <SCORE.INTRA.DIHEDRAL.0>
4.74153

>  <SCORE.INTRA.POLAR>
0

>  <SCORE.INTRA.POLAR.0>
0

>  <SCORE.INTRA.REPUL>
0

>  <SCORE.INTRA.REPUL.0>
0

>  <SCORE.INTRA.SOLV>
0.798265

>  <SCORE.INTRA.SOLV.lig_0>
-60.4375

>  <SCORE.INTRA.VDW>
-0.749526

>  <SCORE.INTRA.VDW.0>
-1.83689

>  <SCORE.INTRA.norm>
-0.00704977

>  <SCORE.RESTR>
0

>  <SCORE.RESTR.CAVITY>
0

>  <SCORE.RESTR.norm>
0

>  <SCORE.SYSTEM>
0

>  <SCORE.SYSTEM.CONST>
0

>  <SCORE.SYSTEM.DIHEDRAL>
0

>  <SCORE.SYSTEM.SOLV>
0

>  <SCORE.SYSTEM.norm>
0

>  <SCORE.heavy>
46

>  <SCORE.norm>
-1.0491

>  <RMSD>
2.158

$$$$
lig.pdb
 OpenBabel11021811523D
libRbt.so/2013.1/901 2013/11/27
 46 52  0  0  0  0  0  0  0  0999 V2000
  160.0901   46.0003  143.6573 P   0  0  2  0  0  0  0  0  0  0  0  0
  160.7978   47.3161  143.8967 O   0  0  0  0  0  0  0  0  0  0  0  0
  159.2442   45.9023  142.4139 O   0  0  0  0  0  0  0  0  0  0  0  0
  159.1830   45.5866  144.9187 O   0  0  0  0  0  0  0  0  0  0  0  0
  159.2564   46.2912  146.1513 C   0  0  0  0  0  0  0  0  0  0  0  0
  158.6138   45.4713  147.2579 C   0  0  1  0  0  0  0  0  0  0  0  0
  157.3320   46.0222  147.5254 O   0  0  0  0  0  0  0  0  0  0  0  0
  158.3866   43.9987  146.9407 C   0  0  1  0  0  0  0  0  0  0  0  0
  159.3658   43.2108  147.6019 O   0  0  0  0  0  0  0  0  0  0  0  0
  157.0438   43.7055  147.5713 C   0  0  1  0  0  0  0  0  0  0  0  0
  157.2314   43.2725  148.9201 O   0  0  0  0  0  0  0  0  0  0  0  0
  156.3287   45.0240  147.6329 C   0  0  2  0  0  0  0  0  0  0  0  0
  155.4188   45.1391  146.4686 N   0  0  0  0  0  0  0  0  0  0  0  0
  154.4318   44.2808  146.1578 C   0  0  0  0  0  0  0  0  0  0  0  0
  153.8012   44.6692  145.0235 N   0  0  0  0  0  0  0  0  0  0  0  0
  154.3867   45.7987  144.5872 C   0  0  0  0  0  0  0  0  0  0  0  0
  154.2056   46.7286  143.4477 C   0  0  0  0  0  0  0  0  0  0  0  0
  153.3115   46.5159  142.5936 O   0  0  0  0  0  0  0  0  0  0  0  0
  155.0264   47.7897  143.3666 N   0  0  0  0  0  0  0  0  0  0  0  0
  155.9855   48.0127  144.2851 C   0  0  0  0  0  0  0  0  0  0  0  0
  156.7792   49.0992  144.1555 N   0  0  0  0  0  0  0  0  0  0  0  0
  156.2045   47.2052  145.3475 N   0  0  0  0  0  0  0  0  0  0  0  0
  155.4517   46.1025  145.5481 C   0  0  0  0  0  0  0  0  0  0  0  0
  159.6070   41.6369  147.2848 P   0  0  2  0  0  0  0  0  0  0  0  0
  158.2800   40.9180  147.3063 O   0  0  0  0  0  0  0  0  0  0  0  0
  160.7468   41.1972  148.1844 O   0  0  0  0  0  0  0  0  0  0  0  0
  160.1164   41.6668  145.7521 O   0  0  0  0  0  0  0  0  0  0  0  0
  161.4739   41.9920  145.4554 C   0  0  0  0  0  0  0  0  0  0  0  0
  161.6857   42.4272  144.0020 C   0  0  1  0  0  0  0  0  0  0  0  0
  161.5958   41.2842  143.1485 O   0  0  0  0  0  0  0  0  0  0  0  0
  160.6786   43.4493  143.4793 C   0  0  1  0  0  0  0  0  0  0  0  0
  161.1530   44.7892  143.6048 O   0  0  0  0  0  0  0  0  0  0  0  0
  160.5323   43.0434  142.0247 C   0  0  1  0  0  0  0  0  0  0  0  0
  161.5339   43.6701  141.2184 O   0  0  0  0  0  0  0  0  0  0  0  0
  160.7933   41.5519  141.9955 C   0  0  2  0  0  0  0  0  0  0  0  0
  159.5087   40.8210  142.1277 N   0  0  0  0  0  0  0  0  0  0  0  0
  159.1313   40.0802  143.1886 C   0  0  0  0  0  0  0  0  0  0  0  0
  157.8908   39.5443  143.0178 N   0  0  0  0  0  0  0  0  0  0  0  0
  157.4457   39.9516  141.8185 C   0  0  0  0  0  0  0  0  0  0  0  0
  156.2205   39.7461  141.0046 C   0  0  0  0  0  0  0  0  0  0  0  0
  155.2566   39.0600  141.4077 O   0  0  0  0  0  0  0  0  0  0  0  0
  156.1640   40.3470  139.8150 N   0  0  0  0  0  0  0  0  0  0  0  0
  157.1692   41.0986  139.3401 C   0  0  0  0  0  0  0  0  0  0  0  0
  157.0116   41.6446  138.1251 N   0  0  0  0  0  0  0  0  0  0  0  0
  158.3193   41.3255  140.0169 N   0  0  0  0  0  0  0  0  0  0  0  0
  158.5157   40.7885  141.2394 C   0  0  0  0  0  0  0  0  0  0  0  0
  1  3  2  6  0  0  0
  1 32  1  0  0  0  0
  1  2  1  0  0  0  0
  1  4  1  0  0  0  0
  4  5  1  0  0  0  0
  6  5  1  6  0  0  0
  7  6  1  0  0  0  0
  8  6  1  0  0  0  0
  8 10  1  0  0  0  0
  8  9  1  1  0  0  0
 10 11  1  1  0  0  0
 12 13  1  6  0  0  0
 12  7  1  0  0  0  0
 12 10  1  0  0  0  0
 14 13  1  0  0  0  0
 15 16  1  0  0  0  0
 15 14  2  0  0  0  0
 16 23  2  0  0  0  0
 17 16  1  0  0  0  0
 17 19  1  0  0  0  0
 18 17  2  0  0  0  0
 19 20  2  0  0  0  0
 20 22  1  0  0  0  0
 20 21  1  0  0  0  0
 23 13  1  0  0  0  0
 23 22  1  0  0  0  0
 24 25  2  1  0  0  0
 24  9  1  0  0  0  0
 24 26  1  0  0  0  0
 27 28  1  0  0  0  0
 27 24  1  0  0  0  0
 29 30  1  6  0  0  0
 29 28  1  0  0  0  0
 31 32  1  6  0  0  0
 31 29  1  0  0  0  0
 33 34  1  6  0  0  0
 33 35  1  0  0  0  0
 33 31  1  0  0  0  0
 35 36  1  1  0  0  0
 35 30  1  0  0  0  0
 36 37  1  0  0  0  0
 38 37  2  0  0  0  0
 39 38  1  0  0  0  0
 40 41  2  0  0  0  0
 40 39  1  0  0  0  0
 42 40  1  0  0  0  0
 43 42  2  0  0  0  0
 43 45  1  0  0  0  0
 44 43  1  0  0  0  0
 45 46  1  0  0  0  0
 46 39  2  0  0  0  0
 46 36  1  0  0  0  0
M  END
>  <CHROM.1>
172.88693031,3.01986454,158.17721260,43.60823799,144.25074315,-1.98753476
0.71528580,-2.18840294

>  <Name>
lig.pdb

>  <RI>
0

>  <Rbt.Current_Directory>
/home/itssahil/PROJECTS/Mol_Feturizer/New_Systems/rnas/4yb0

>  <Rbt.Executable>
rbdock ($Id: //depot/dev/client3/rdock/2013.1/src/exe/rbdock.cxx#4 $)

>  <Rbt.Library>
libRbt.so (2013.1, Build901 2013/11/27)

>  <Rbt.Parameter_File>
/export/apps/rDock/src/rDock_2013.1_src/data/scripts/dock_solv.prm

>  <Rbt.Receptor>
prm/pocket_docking_4.prm

>  <SCORE>
-48.2574

>  <SCORE.INTER>
-47.9246

>  <SCORE.INTER.CONST>
1

>  <SCORE.INTER.POLAR>
0

>  <SCORE.INTER.ROT>
2

>  <SCORE.INTER.SOLV>
28.0501

>  <SCORE.INTER.VDW>
-46.2331

>  <SCORE.INTER.norm>
-1.04184

>  <SCORE.INTRA>
-0.332881

>  <SCORE.INTRA.DIHEDRAL>
0.0505759

>  <SCORE.INTRA.DIHEDRAL.0>
4.74153

>  <SCORE.INTRA.POLAR>
0

>  <SCORE.INTRA.POLAR.0>
0

>  <SCORE.INTRA.REPUL>
0

>  <SCORE.INTRA.REPUL.0>
0

>  <SCORE.INTRA.SOLV>
0.692832

>  <SCORE.INTRA.SOLV.lig_0>
-60.4375

>  <SCORE.INTRA.VDW>
-0.704584

>  <SCORE.INTRA.VDW.0>
-1.83689

>  <SCORE.INTRA.norm>
-0.00723653

>  <SCORE.RESTR>
0

>  <SCORE.RESTR.CAVITY>
0

>  <SCORE.RESTR.norm>
0

>  <SCORE.SYSTEM>
0

>  <SCORE.SYSTEM.CONST>
0

>  <SCORE.SYSTEM.DIHEDRAL>
0

>  <SCORE.SYSTEM.SOLV>
0

>  <SCORE.SYSTEM.norm>
0

>  <SCORE.heavy>
46

>  <SCORE.norm>
-1.04907

>  <RMSD>
2.160

$$$$
lig.pdb
 OpenBabel11021811523D
libRbt.so/2013.1/901 2013/11/27
 46 52  0  0  0  0  0  0  0  0999 V2000
  160.1044   45.9923  143.6737 P   0  0  2  0  0  0  0  0  0  0  0  0
  160.8158   47.3050  143.9194 O   0  0  0  0  0  0  0  0  0  0  0  0
  159.2635   45.9005  142.4265 O   0  0  0  0  0  0  0  0  0  0  0  0
  159.1904   45.5787  144.9301 O   0  0  0  0  0  0  0  0  0  0  0  0
  159.2611   46.2799  146.1648 C   0  0  0  0  0  0  0  0  0  0  0  0
  158.6109   45.4596  147.2666 C   0  0  1  0  0  0  0  0  0  0  0  0
  157.3300   46.0144  147.5300 O   0  0  0  0  0  0  0  0  0  0  0  0
  158.3798   43.9886  146.9447 C   0  0  1  0  0  0  0  0  0  0  0  0
  159.3533   43.1955  147.6080 O   0  0  0  0  0  0  0  0  0  0  0  0
  157.0332   43.6987  147.5688 C   0  0  1  0  0  0  0  0  0  0  0  0
  157.2136   43.2616  148.9173 O   0  0  0  0  0  0  0  0  0  0  0  0
  156.3227   45.0195  147.6307 C   0  0  2  0  0  0  0  0  0  0  0  0
  155.4181   45.1409  146.4629 N   0  0  0  0  0  0  0  0  0  0  0  0
  154.4343   44.2829  146.1415 C   0  0  0  0  0  0  0  0  0  0  0  0
  153.8083   44.6779  145.0069 N   0  0  0  0  0  0  0  0  0  0  0  0
  154.3937   45.8114  144.5811 C   0  0  0  0  0  0  0  0  0  0  0  0
  154.2163   46.7487  143.4472 C   0  0  0  0  0  0  0  0  0  0  0  0
  153.3268   46.5403  142.5874 O   0  0  0  0  0  0  0  0  0  0  0  0
  155.0355   47.8120  143.3773 N   0  0  0  0  0  0  0  0  0  0  0  0
  155.9897   48.0304  144.3018 C   0  0  0  0  0  0  0  0  0  0  0  0
  156.7819   49.1193  144.1835 N   0  0  0  0  0  0  0  0  0  0  0  0
  156.2052   47.2161  145.3598 N   0  0  0  0  0  0  0  0  0  0  0  0
  155.4535   46.1106  145.5492 C   0  0  0  0  0  0  0  0  0  0  0  0
  159.5901   41.6215  147.2879 P   0  0  2  0  0  0  0  0  0  0  0  0
  158.2605   40.9073  147.3020 O   0  0  0  0  0  0  0  0  0  0  0  0
  160.7245   41.1755  148.1912 O   0  0  0  0  0  0  0  0  0  0  0  0
  160.1062   41.6534  145.7575 O   0  0  0  0  0  0  0  0  0  0  0  0
  161.4660   41.9745  145.4673 C   0  0  0  0  0  0  0  0  0  0  0  0
  161.6856   42.4126  144.0160 C   0  0  1  0  0  0  0  0  0  0  0  0
  161.5952   41.2722  143.1592 O   0  0  0  0  0  0  0  0  0  0  0  0
  160.6845   43.4397  143.4916 C   0  0  1  0  0  0  0  0  0  0  0  0
  161.1631   44.7776  143.6226 O   0  0  0  0  0  0  0  0  0  0  0  0
  160.5429   43.0380  142.0354 C   0  0  1  0  0  0  0  0  0  0  0  0
  161.5501   43.6631  141.2350 O   0  0  0  0  0  0  0  0  0  0  0  0
  160.7986   41.5457  142.0035 C   0  0  2  0  0  0  0  0  0  0  0  0
  159.5108   40.8190  142.1284 N   0  0  0  0  0  0  0  0  0  0  0  0
  159.1280   40.0734  143.1839 C   0  0  0  0  0  0  0  0  0  0  0  0
  157.8858   39.5434  143.0071 N   0  0  0  0  0  0  0  0  0  0  0  0
  157.4451   39.9598  141.8093 C   0  0  0  0  0  0  0  0  0  0  0  0
  156.2209   39.7640  140.9915 C   0  0  0  0  0  0  0  0  0  0  0  0
  155.2535   39.0794  141.3882 O   0  0  0  0  0  0  0  0  0  0  0  0
  156.1695   40.3723  139.8053 N   0  0  0  0  0  0  0  0  0  0  0  0
  157.1788   41.1228  139.3373 C   0  0  0  0  0  0  0  0  0  0  0  0
  157.0261   41.6767  138.1253 N   0  0  0  0  0  0  0  0  0  0  0  0
  158.3282   41.3410  140.0181 N   0  0  0  0  0  0  0  0  0  0  0  0
  158.5197   40.7959  141.2377 C   0  0  0  0  0  0  0  0  0  0  0  0
  1  3  2  6  0  0  0
  1 32  1  0  0  0  0
  1  2  1  0  0  0  0
  1  4  1  0  0  0  0
  4  5  1  0  0  0  0
  6  5  1  6  0  0  0
  7  6  1  0  0  0  0
  8  6  1  0  0  0  0
  8 10  1  0  0  0  0
  8  9  1  1  0  0  0
 10 11  1  1  0  0  0
 12 13  1  6  0  0  0
 12  7  1  0  0  0  0
 12 10  1  0  0  0  0
 14 13  1  0  0  0  0
 15 16  1  0  0  0  0
 15 14  2  0  0  0  0
 16 23  2  0  0  0  0
 17 16  1  0  0  0  0
 17 19  1  0  0  0  0
 18 17  2  0  0  0  0
 19 20  2  0  0  0  0
 20 22  1  0  0  0  0
 20 21  1  0  0  0  0
 23 13  1  0  0  0  0
 23 22  1  0  0  0  0
 24 25  2  1  0  0  0
 24  9  1  0  0  0  0
 24 26  1  0  0  0  0
 27 28  1  0  0  0  0
 27 24  1  0  0  0  0
 29 30  1  6  0  0  0
 29 28  1  0  0  0  0
 31 32  1  6  0  0  0
 31 29  1  0  0  0  0
 33 34  1  6  0  0  0
 33 35  1  0  0  0  0
 33 31  1  0  0  0  0
 35 36  1  1  0  0  0
 35 30  1  0  0  0  0
 36 37  1  0  0  0  0
 38 37  2  0  0  0  0
 39 38  1  0  0  0  0
 40 41  2  0  0  0  0
 40 39  1  0  0  0  0
 42 40  1  0  0  0  0
 43 42  2  0  0  0  0
 43 45  1  0  0  0  0
 44 43  1  0  0  0  0
 45 46  1  0  0  0  0
 46 39  2  0  0  0  0
 46 36  1  0  0  0  0
M  END
>  <CHROM.1>
172.48430431,2.78826039,158.17846664,43.60793472,144.25463277,-1.99356958
0.72004597,-2.18482820

>  <Name>
lig.pdb

>  <RI>
0

>  <Rbt.Current_Directory>
/home/itssahil/PROJECTS/Mol_Feturizer/New_Systems/rnas/4yb0

>  <Rbt.Executable>
rbdock ($Id: //depot/dev/client3/rdock/2013.1/src/exe/rbdock.cxx#4 $)

>  <Rbt.Library>
libRbt.so (2013.1, Build901 2013/11/27)

>  <Rbt.Parameter_File>
/export/apps/rDock/src/rDock_2013.1_src/data/scripts/dock_solv.prm

>  <Rbt.Receptor>
prm/pocket_docking_4.prm

>  <SCORE>
-48.2926

>  <SCORE.INTER>
-47.9649

>  <SCORE.INTER.CONST>
1

>  <SCORE.INTER.POLAR>
0

>  <SCORE.INTER.ROT>
2

>  <SCORE.INTER.SOLV>
28.0502

>  <SCORE.INTER.VDW>
-46.26

>  <SCORE.INTER.norm>
-1.04272

>  <SCORE.INTRA>
-0.327654

>  <SCORE.INTRA.DIHEDRAL>
0.0489505

>  <SCORE.INTRA.DIHEDRAL.0>
4.74153

>  <SCORE.INTRA.POLAR>
0

>  <SCORE.INTRA.POLAR.0>
0

>  <SCORE.INTRA.REPUL>
0

>  <SCORE.INTRA.REPUL.0>
0

>  <SCORE.INTRA.SOLV>
0.666562

>  <SCORE.INTRA.SOLV.lig_0>
-60.4375

>  <SCORE.INTRA.VDW>
-0.68541

>  <SCORE.INTRA.VDW.0>
-1.83689

>  <SCORE.INTRA.norm>
-0.00712291

>  <SCORE.RESTR>
0

>  <SCORE.RESTR.CAVITY>
0

>  <SCORE.RESTR.norm>
0

>  <SCORE.SYSTEM>
0

>  <SCORE.SYSTEM.CONST>
0

>  <SCORE.SYSTEM.DIHEDRAL>
0

>  <SCORE.SYSTEM.SOLV>
0

>  <SCORE.SYSTEM.norm>
0

>  <SCORE.heavy>
46

>  <SCORE.norm>
-1.04984

>  <RMSD>
2.161

$$$$
lig.pdb
 OpenBabel11021811523D
libRbt.so/2013.1/901 2013/11/27
 46 52  0  0  0  0  0  0  0  0999 V2000
  160.0941   45.9916  143.6600 P   0  0  2  0  0  0  0  0  0  0  0  0
  160.8045   47.3053  143.9026 O   0  0  0  0  0  0  0  0  0  0  0  0
  159.2499   45.8977  142.4152 O   0  0  0  0  0  0  0  0  0  0  0  0
  159.1841   45.5779  144.9193 O   0  0  0  0  0  0  0  0  0  0  0  0
  159.2573   46.2803  146.1531 C   0  0  0  0  0  0  0  0  0  0  0  0
  158.6112   45.4601  147.2574 C   0  0  1  0  0  0  0  0  0  0  0  0
  157.3303   46.0137  147.5239 O   0  0  0  0  0  0  0  0  0  0  0  0
  158.3810   43.9886  146.9375 C   0  0  1  0  0  0  0  0  0  0  0  0
  159.3573   43.1973  147.5988 O   0  0  0  0  0  0  0  0  0  0  0  0
  157.0365   43.6975  147.5656 C   0  0  1  0  0  0  0  0  0  0  0  0
  157.2211   43.2619  148.9139 O   0  0  0  0  0  0  0  0  0  0  0  0
  156.3245   45.0176  147.6283 C   0  0  2  0  0  0  0  0  0  0  0  0
  155.4166   45.1368  146.4629 N   0  0  0  0  0  0  0  0  0  0  0  0
  154.4120   44.2952  146.1630 C   0  0  0  0  0  0  0  0  0  0  0  0
  153.7890   44.6822  145.0241 N   0  0  0  0  0  0  0  0  0  0  0  0
  154.3973   45.7939  144.5736 C   0  0  0  0  0  0  0  0  0  0  0  0
  154.2348   46.7131  143.4226 C   0  0  0  0  0  0  0  0  0  0  0  0
  153.3362   46.5082  142.5715 O   0  0  0  0  0  0  0  0  0  0  0  0
  155.0772   47.7561  143.3281 N   0  0  0  0  0  0  0  0  0  0  0  0
  156.0410   47.9707  144.2435 C   0  0  0  0  0  0  0  0  0  0  0  0
  156.8568   49.0390  144.1002 N   0  0  0  0  0  0  0  0  0  0  0  0
  156.2440   47.1722  145.3159 N   0  0  0  0  0  0  0  0  0  0  0  0
  155.4688   46.0878  145.5304 C   0  0  0  0  0  0  0  0  0  0  0  0
  159.5952   41.6233  147.2794 P   0  0  2  0  0  0  0  0  0  0  0  0
  158.2664   40.9075  147.2978 O   0  0  0  0  0  0  0  0  0  0  0  0
  160.7326   41.1795  148.1800 O   0  0  0  0  0  0  0  0  0  0  0  0
  160.1070   41.6545  145.7476 O   0  0  0  0  0  0  0  0  0  0  0  0
  161.4656   41.9770  145.4534 C   0  0  0  0  0  0  0  0  0  0  0  0
  161.6806   42.4141  144.0010 C   0  0  1  0  0  0  0  0  0  0  0  0
  161.5893   41.2728  143.1455 O   0  0  0  0  0  0  0  0  0  0  0  0
  160.6768   43.4395  143.4786 C   0  0  1  0  0  0  0  0  0  0  0  0
  161.1542   44.7781  143.6070 O   0  0  0  0  0  0  0  0  0  0  0  0
  160.5317   43.0364  142.0230 C   0  0  1  0  0  0  0  0  0  0  0  0
  161.5359   43.6620  141.2193 O   0  0  0  0  0  0  0  0  0  0  0  0
  160.7892   41.5443  141.9917 C   0  0  2  0  0  0  0  0  0  0  0  0
  159.5026   40.8162  142.1209 N   0  0  0  0  0  0  0  0  0  0  0  0
  159.1194   40.0793  143.1824 C   0  0  0  0  0  0  0  0  0  0  0  0
  157.8786   39.5453  143.0080 N   0  0  0  0  0  0  0  0  0  0  0  0
  157.4392   39.9499  141.8057 C   0  0  0  0  0  0  0  0  0  0  0  0
  156.2170   39.7442  140.9874 C   0  0  0  0  0  0  0  0  0  0  0  0
  155.2502   39.0612  141.3885 O   0  0  0  0  0  0  0  0  0  0  0  0
  156.1665   40.3417  139.7957 N   0  0  0  0  0  0  0  0  0  0  0  0
  157.1752   41.0899  139.3228 C   0  0  0  0  0  0  0  0  0  0  0  0
  157.0236   41.6326  138.1055 N   0  0  0  0  0  0  0  0  0  0  0  0
  158.3229   41.3167  140.0037 N   0  0  0  0  0  0  0  0  0  0  0  0
  158.5132   40.7830  141.2285 C   0  0  0  0  0  0  0  0  0  0  0  0
  1  3  2  6  0  0  0
  1 32  1  0  0  0  0
  1  2  1  0  0  0  0
  1  4  1  0  0  0  0
  4  5  1  0  0  0  0
  6  5  1  6  0  0  0
  7  6  1  0  0  0  0
  8  6  1  0  0  0  0
  8 10  1  0  0  0  0
  8  9  1  1  0  0  0
 10 11  1  1  0  0  0
 12 13  1  6  0  0  0
 12  7  1  0  0  0  0
 12 10  1  0  0  0  0
 14 13  1  0  0  0  0
 15 16  1  0  0  0  0
 15 14  2  0  0  0  0
 16 23  2  0  0  0  0
 17 16  1  0  0  0  0
 17 19  1  0  0  0  0
 18 17  2  0  0  0  0
 19 20  2  0  0  0  0
 20 22  1  0  0  0  0
 20 21  1  0  0  0  0
 23 13  1  0  0  0  0
 23 22  1  0  0  0  0
 24 25  2  1  0  0  0
 24  9  1  0  0  0  0
 24 26  1  0  0  0  0
 27 28  1  0  0  0  0
 27 24  1  0  0  0  0
 29 30  1  6  0  0  0
 29 28  1  0  0  0  0
 31 32  1  6  0  0  0
 31 29  1  0  0  0  0
 33 34  1  6  0  0  0
 33 35  1  0  0  0  0
 33 31  1  0  0  0  0
 35 36  1  1  0  0  0
 35 30  1  0  0  0  0
 36 37  1  0  0  0  0
 38 37  2  0  0  0  0
 39 38  1  0  0  0  0
 40 41  2  0  0  0  0
 40 39  1  0  0  0  0
 42 40  1  0  0  0  0
 43 42  2  0  0  0  0
 43 45  1  0  0  0  0
 44 43  1  0  0  0  0
 45 46  1  0  0  0  0
 46 39  2  0  0  0  0
 46 36  1  0  0  0  0
M  END
>  <CHROM.1>
174.20841191,3.32799780,158.17984450,43.59771887,144.24188861,-1.97619485
0.71996610,-2.18591150

>  <Name>
lig.pdb

>  <RI>
0

>  <Rbt.Current_Directory>
/home/itssahil/PROJECTS/Mol_Feturizer/New_Systems/rnas/4yb0

>  <Rbt.Executable>
rbdock ($Id: //depot/dev/client3/rdock/2013.1/src/exe/rbdock.cxx#4 $)

>  <Rbt.Library>
libRbt.so (2013.1, Build901 2013/11/27)

>  <Rbt.Parameter_File>
/export/apps/rDock/src/rDock_2013.1_src/data/scripts/dock_solv.prm

>  <Rbt.Receptor>
prm/pocket_docking_6.prm

>  <SCORE>
-48.2312

>  <SCORE.INTER>
-47.8926

>  <SCORE.INTER.CONST>
1

>  <SCORE.INTER.POLAR>
0

>  <SCORE.INTER.ROT>
2

>  <SCORE.INTER.SOLV>
27.9848

>  <SCORE.INTER.VDW>
-46.19

>  <SCORE.INTER.norm>
-1.04114

>  <SCORE.INTRA>
-0.338624

>  <SCORE.INTRA.DIHEDRAL>
0.054545

>  <SCORE.INTRA.DIHEDRAL.0>
4.74153

>  <SCORE.INTRA.POLAR>
0

>  <SCORE.INTRA.POLAR.0>
0

>  <SCORE.INTRA.REPUL>
0

>  <SCORE.INTRA.REPUL.0>
0

>  <SCORE.INTRA.SOLV>
0.838576

>  <SCORE.INTRA.SOLV.lig_0>
-60.4375

>  <SCORE.INTRA.VDW>
-0.785185

>  <SCORE.INTRA.VDW.0>
-1.83689

>  <SCORE.INTRA.norm>
-0.00736139

>  <SCORE.RESTR>
0

>  <SCORE.RESTR.CAVITY>
0

>  <SCORE.RESTR.norm>
0

>  <SCORE.SYSTEM>
0

>  <SCORE.SYSTEM.CONST>
0

>  <SCORE.SYSTEM.DIHEDRAL>
0

>  <SCORE.SYSTEM.SOLV>
0

>  <SCORE.SYSTEM.norm>
0

>  <SCORE.heavy>
46

>  <SCORE.norm>
-1.04851

>  <RMSD>
2.164

$$$$
lig.pdb
 OpenBabel11021811523D
libRbt.so/2013.1/901 2013/11/27
 46 52  0  0  0  0  0  0  0  0999 V2000
  160.1417   45.9608  143.7047 P   0  0  2  0  0  0  0  0  0  0  0  0
  160.8613   47.2673  143.9590 O   0  0  0  0  0  0  0  0  0  0  0  0
  159.3113   45.8777  142.4498 O   0  0  0  0  0  0  0  0  0  0  0  0
  159.2132   45.5525  144.9522 O   0  0  0  0  0  0  0  0  0  0  0  0
  159.2784   46.2511  146.1886 C   0  0  0  0  0  0  0  0  0  0  0  0
  158.6118   45.4342  147.2832 C   0  0  1  0  0  0  0  0  0  0  0  0
  157.3330   45.9989  147.5360 O   0  0  0  0  0  0  0  0  0  0  0  0
  158.3719   43.9657  146.9567 C   0  0  1  0  0  0  0  0  0  0  0  0
  159.3330   43.1638  147.6274 O   0  0  0  0  0  0  0  0  0  0  0  0
  157.0175   43.6855  147.5683 C   0  0  1  0  0  0  0  0  0  0  0  0
  157.1822   43.2449  148.9176 O   0  0  0  0  0  0  0  0  0  0  0  0
  156.3170   45.0119  147.6260 C   0  0  2  0  0  0  0  0  0  0  0  0
  155.4239   45.1423  146.4503 N   0  0  0  0  0  0  0  0  0  0  0  0
  154.4388   44.2906  146.1165 C   0  0  0  0  0  0  0  0  0  0  0  0
  153.8255   44.6930  144.9776 N   0  0  0  0  0  0  0  0  0  0  0  0
  154.4205   45.8252  144.5617 C   0  0  0  0  0  0  0  0  0  0  0  0
  154.2583   46.7678  143.4298 C   0  0  0  0  0  0  0  0  0  0  0  0
  153.3758   46.5672  142.5610 O   0  0  0  0  0  0  0  0  0  0  0  0
  155.0835   47.8272  143.3717 N   0  0  0  0  0  0  0  0  0  0  0  0
  156.0301   48.0372  144.3059 C   0  0  0  0  0  0  0  0  0  0  0  0
  156.8288   49.1226  144.1992 N   0  0  0  0  0  0  0  0  0  0  0  0
  156.2317   47.2178  145.3626 N   0  0  0  0  0  0  0  0  0  0  0  0
  155.4727   46.1154  145.5407 C   0  0  0  0  0  0  0  0  0  0  0  0
  159.5602   41.5885  147.3069 P   0  0  2  0  0  0  0  0  0  0  0  0
  158.2248   40.8849  147.3078 O   0  0  0  0  0  0  0  0  0  0  0  0
  160.6828   41.1320  148.2196 O   0  0  0  0  0  0  0  0  0  0  0  0
  160.0902   41.6187  145.7813 O   0  0  0  0  0  0  0  0  0  0  0  0
  161.4551   41.9293  145.5039 C   0  0  0  0  0  0  0  0  0  0  0  0
  161.6912   42.3680  144.0552 C   0  0  1  0  0  0  0  0  0  0  0  0
  161.5995   41.2297  143.1958 O   0  0  0  0  0  0  0  0  0  0  0  0
  160.7031   43.4038  143.5236 C   0  0  1  0  0  0  0  0  0  0  0  0
  161.1911   44.7377  143.6611 O   0  0  0  0  0  0  0  0  0  0  0  0
  160.5714   43.0057  142.0655 C   0  0  1  0  0  0  0  0  0  0  0  0
  161.5907   43.6239  141.2752 O   0  0  0  0  0  0  0  0  0  0  0  0
  160.8155   41.5114  142.0334 C   0  0  2  0  0  0  0  0  0  0  0  0
  159.5208   40.7948  142.1456 N   0  0  0  0  0  0  0  0  0  0  0  0
  159.1246   40.0468  143.1944 C   0  0  0  0  0  0  0  0  0  0  0  0
  157.8793   39.5282  143.0062 N   0  0  0  0  0  0  0  0  0  0  0  0
  157.4503   39.9545  141.8076 C   0  0  0  0  0  0  0  0  0  0  0  0
  156.2303   39.7733  140.9804 C   0  0  0  0  0  0  0  0  0  0  0  0
  155.2545   39.0947  141.3667 O   0  0  0  0  0  0  0  0  0  0  0  0
  156.1921   40.3883  139.7972 N   0  0  0  0  0  0  0  0  0  0  0  0
  157.2108   41.1328  139.3402 C   0  0  0  0  0  0  0  0  0  0  0  0
  157.0711   41.6945  138.1301 N   0  0  0  0  0  0  0  0  0  0  0  0
  158.3573   41.3379  140.0300 N   0  0  0  0  0  0  0  0  0  0  0  0
  158.5358   40.7847  141.2479 C   0  0  0  0  0  0  0  0  0  0  0  0
  1  3  2  6  0  0  0
  1 32  1  0  0  0  0
  1  2  1  0  0  0  0
  1  4  1  0  0  0  0
  4  5  1  0  0  0  0
  6  5  1  6  0  0  0
  7  6  1  0  0  0  0
  8  6  1  0  0  0  0
  8 10  1  0  0  0  0
  8  9  1  1  0  0  0
 10 11  1  1  0  0  0
 12 13  1  6  0  0  0
 12  7  1  0  0  0  0
 12 10  1  0  0  0  0
 14 13  1  0  0  0  0
 15 16  1  0  0  0  0
 15 14  2  0  0  0  0
 16 23  2  0  0  0  0
 17 16  1  0  0  0  0
 17 19  1  0  0  0  0
 18 17  2  0  0  0  0
 19 20  2  0  0  0  0
 20 22  1  0  0  0  0
 20 21  1  0  0  0  0
 23 13  1  0  0  0  0
 23 22  1  0  0  0  0
 24 25  2  1  0  0  0
 24  9  1  0  0  0  0
 24 26  1  0  0  0  0
 27 28  1  0  0  0  0
 27 24  1  0  0  0  0
 29 30  1  6  0  0  0
 29 28  1  0  0  0  0
 31 32  1  6  0  0  0
 31 29  1  0  0  0  0
 33 34  1  6  0  0  0
 33 35  1  0  0  0  0
 33 31  1  0  0  0  0
 35 36  1  1  0  0  0
 35 30  1  0  0  0  0
 36 37  1  0  0  0  0
 38 37  2  0  0  0  0
 39 38  1  0  0  0  0
 40 41  2  0  0  0  0
 40 39  1  0  0  0  0
 42 40  1  0  0  0  0
 43 42  2  0  0  0  0
 43 45  1  0  0  0  0
 44 43  1  0  0  0  0
 45 46  1  0  0  0  0
 46 39  2  0  0  0  0
 46 36  1  0  0  0  0
M  END
>  <CHROM.1>
172.27164722,2.54306690,158.19043514,43.59260105,144.26559142,-2.00028891
0.73137710,-2.18073389

>  <Name>
lig.pdb

>  <RI>
0

>  <Rbt.Current_Directory>
/home/itssahil/PROJECTS/Mol_Feturizer/New_Systems/rnas/4yb0

>  <Rbt.Executable>
rbdock ($Id: //depot/dev/client3/rdock/2013.1/src/exe/rbdock.cxx#4 $)

>  <Rbt.Library>
libRbt.so (2013.1, Build901 2013/11/27)

>  <Rbt.Parameter_File>
/export/apps/rDock/src/rDock_2013.1_src/data/scripts/dock_solv.prm

>  <Rbt.Receptor>
prm/pocket_docking_4.prm

>  <SCORE>
-48.3495

>  <SCORE.INTER>
-48.0247

>  <SCORE.INTER.CONST>
1

>  <SCORE.INTER.POLAR>
0

>  <SCORE.INTER.ROT>
2

>  <SCORE.INTER.SOLV>
27.9669

>  <SCORE.INTER.VDW>
-46.2721

>  <SCORE.INTER.norm>
-1.04402

>  <SCORE.INTRA>
-0.324838

>  <SCORE.INTRA.DIHEDRAL>
0.0477101

>  <SCORE.INTRA.DIHEDRAL.0>
4.74153

>  <SCORE.INTRA.POLAR>
0

>  <SCORE.INTRA.POLAR.0>
0

>  <SCORE.INTRA.REPUL>
0

>  <SCORE.INTRA.REPUL.0>
0

>  <SCORE.INTRA.SOLV>
0.652116

>  <SCORE.INTRA.SOLV.lig_0>
-60.4375

>  <SCORE.INTRA.VDW>
-0.674751

>  <SCORE.INTRA.VDW.0>
-1.83689

>  <SCORE.INTRA.norm>
-0.00706169

>  <SCORE.RESTR>
0

>  <SCORE.RESTR.CAVITY>
0

>  <SCORE.RESTR.norm>
0

>  <SCORE.SYSTEM>
0

>  <SCORE.SYSTEM.CONST>
0

>  <SCORE.SYSTEM.DIHEDRAL>
0

>  <SCORE.SYSTEM.SOLV>
0

>  <SCORE.SYSTEM.norm>
0

>  <SCORE.heavy>
46

>  <SCORE.norm>
-1.05108

>  <RMSD>
2.168

$$$$
lig.pdb
 OpenBabel11021811523D
libRbt.so/2013.1/901 2013/11/27
 46 52  0  0  0  0  0  0  0  0999 V2000
  160.1183   45.9635  143.7082 P   0  0  2  0  0  0  0  0  0  0  0  0
  160.8339   47.2717  143.9656 O   0  0  0  0  0  0  0  0  0  0  0  0
  159.2830   45.8831  142.4565 O   0  0  0  0  0  0  0  0  0  0  0  0
  159.1966   45.5459  144.9577 O   0  0  0  0  0  0  0  0  0  0  0  0
  159.2643   46.2390  146.1971 C   0  0  0  0  0  0  0  0  0  0  0  0
  158.6055   45.4144  147.2906 C   0  0  1  0  0  0  0  0  0  0  0  0
  157.3256   45.9730  147.5514 O   0  0  0  0  0  0  0  0  0  0  0  0
  158.3698   43.9465  146.9583 C   0  0  1  0  0  0  0  0  0  0  0  0
  159.3368   43.1452  147.6212 O   0  0  0  0  0  0  0  0  0  0  0  0
  157.0191   43.6583  147.5742 C   0  0  1  0  0  0  0  0  0  0  0  0
  157.1912   43.2120  148.9208 O   0  0  0  0  0  0  0  0  0  0  0  0
  156.3138   44.9817  147.6411 C   0  0  2  0  0  0  0  0  0  0  0  0
  155.4153   45.1142  146.4698 N   0  0  0  0  0  0  0  0  0  0  0  0
  154.4051   44.2831  146.1593 C   0  0  0  0  0  0  0  0  0  0  0  0
  153.7938   44.6806  145.0176 N   0  0  0  0  0  0  0  0  0  0  0  0
  154.4156   45.7885  144.5761 C   0  0  0  0  0  0  0  0  0  0  0  0
  154.2698   46.7139  143.4279 C   0  0  0  0  0  0  0  0  0  0  0  0
  153.3754   46.5209  142.5696 O   0  0  0  0  0  0  0  0  0  0  0  0
  155.1224   47.7494  143.3438 N   0  0  0  0  0  0  0  0  0  0  0  0
  156.0817   47.9513  144.2669 C   0  0  0  0  0  0  0  0  0  0  0  0
  156.9083   49.0126  144.1339 N   0  0  0  0  0  0  0  0  0  0  0  0
  156.2696   47.1465  145.3373 N   0  0  0  0  0  0  0  0  0  0  0  0
  155.4829   46.0685  145.5417 C   0  0  0  0  0  0  0  0  0  0  0  0
  159.5687   41.5723  147.2923 P   0  0  2  0  0  0  0  0  0  0  0  0
  158.2360   40.8636  147.2956 O   0  0  0  0  0  0  0  0  0  0  0  0
  160.6969   41.1159  148.1982 O   0  0  0  0  0  0  0  0  0  0  0  0
  160.0922   41.6117  145.7646 O   0  0  0  0  0  0  0  0  0  0  0  0
  161.4547   41.9289  145.4830 C   0  0  0  0  0  0  0  0  0  0  0  0
  161.6830   42.3752  144.0354 C   0  0  1  0  0  0  0  0  0  0  0  0
  161.5920   41.2405  143.1711 O   0  0  0  0  0  0  0  0  0  0  0  0
  160.6887   43.4097  143.5129 C   0  0  1  0  0  0  0  0  0  0  0  0
  161.1722   44.7447  143.6545 O   0  0  0  0  0  0  0  0  0  0  0  0
  160.5523   43.0178  142.0534 C   0  0  1  0  0  0  0  0  0  0  0  0
  161.5659   43.6437  141.2618 O   0  0  0  0  0  0  0  0  0  0  0  0
  160.8020   41.5246  142.0133 C   0  0  2  0  0  0  0  0  0  0  0  0
  159.5106   40.8026  142.1276 N   0  0  0  0  0  0  0  0  0  0  0  0
  159.1195   40.0525  143.1768 C   0  0  0  0  0  0  0  0  0  0  0  0
  157.8760   39.5287  142.9907 N   0  0  0  0  0  0  0  0  0  0  0  0
  157.4431   39.9537  141.7931 C   0  0  0  0  0  0  0  0  0  0  0  0
  156.2223   39.7676  140.9679 C   0  0  0  0  0  0  0  0  0  0  0  0
  155.2501   39.0847  141.3558 O   0  0  0  0  0  0  0  0  0  0  0  0
  156.1794   40.3829  139.7850 N   0  0  0  0  0  0  0  0  0  0  0  0
  157.1941   41.1318  139.3265 C   0  0  0  0  0  0  0  0  0  0  0  0
  157.0499   41.6933  138.1168 N   0  0  0  0  0  0  0  0  0  0  0  0
  158.3410   41.3415  140.0143 N   0  0  0  0  0  0  0  0  0  0  0  0
  158.5240   40.7886  141.2317 C   0  0  0  0  0  0  0  0  0  0  0  0
  1  3  2  6  0  0  0
  1 32  1  0  0  0  0
  1  2  1  0  0  0  0
  1  4  1  0  0  0  0
  4  5  1  0  0  0  0
  6  5  1  6  0  0  0
  7  6  1  0  0  0  0
  8  6  1  0  0  0  0
  8 10  1  0  0  0  0
  8  9  1  1  0  0  0
 10 11  1  1  0  0  0
 12 13  1  6  0  0  0
 12  7  1  0  0  0  0
 12 10  1  0  0  0  0
 14 13  1  0  0  0  0
 15 16  1  0  0  0  0
 15 14  2  0  0  0  0
 16 23  2  0  0  0  0
 17 16  1  0  0  0  0
 17 19  1  0  0  0  0
 18 17  2  0  0  0  0
 19 20  2  0  0  0  0
 20 22  1  0  0  0  0
 20 21  1  0  0  0  0
 23 13  1  0  0  0  0
 23 22  1  0  0  0  0
 24 25  2  1  0  0  0
 24  9  1  0  0  0  0
 24 26  1  0  0  0  0
 27 28  1  0  0  0  0
 27 24  1  0  0  0  0
 29 30  1  6  0  0  0
 29 28  1  0  0  0  0
 31 32  1  6  0  0  0
 31 29  1  0  0  0  0
 33 34  1  6  0  0  0
 33 35  1  0  0  0  0
 33 31  1  0  0  0  0
 35 36  1  1  0  0  0
 35 30  1  0  0  0  0
 36 37  1  0  0  0  0
 38 37  2  0  0  0  0
 39 38  1  0  0  0  0
 40 41  2  0  0  0  0
 40 39  1  0  0  0  0
 42 40  1  0  0  0  0
 43 42  2  0  0  0  0
 43 45  1  0  0  0  0
 44 43  1  0  0  0  0
 45 46  1  0  0  0  0
 46 39  2  0  0  0  0
 46 36  1  0  0  0  0
M  END
>  <CHROM.1>
174.48920471,2.82667887,158.18673288,43.57728987,144.25891486,-1.98129022
0.72899043,-2.17532270

>  <Name>
lig.pdb

>  <RI>
0

>  <Rbt.Current_Directory>
/home/itssahil/PROJECTS/Mol_Feturizer/New_Systems/rnas/4yb0

>  <Rbt.Executable>
rbdock ($Id: //depot/dev/client3/rdock/2013.1/src/exe/rbdock.cxx#4 $)

>  <Rbt.Library>
libRbt.so (2013.1, Build901 2013/11/27)

>  <Rbt.Parameter_File>
/export/apps/rDock/src/rDock_2013.1_src/data/scripts/dock_solv.prm

>  <Rbt.Receptor>
prm/pocket_docking_8.prm

>  <SCORE>
-48.2056

>  <SCORE.INTER>
-47.8721

>  <SCORE.INTER.CONST>
1

>  <SCORE.INTER.POLAR>
0

>  <SCORE.INTER.ROT>
2

>  <SCORE.INTER.SOLV>
27.8918

>  <SCORE.INTER.VDW>
-46.1453

>  <SCORE.INTER.norm>
-1.0407

>  <SCORE.INTRA>
-0.333485

>  <SCORE.INTRA.DIHEDRAL>
0.0536295

>  <SCORE.INTRA.DIHEDRAL.0>
4.74153

>  <SCORE.INTRA.POLAR>
0

>  <SCORE.INTRA.POLAR.0>
0

>  <SCORE.INTRA.REPUL>
0

>  <SCORE.INTRA.REPUL.0>
0

>  <SCORE.INTRA.SOLV>
0.871593

>  <SCORE.INTRA.SOLV.lig_0>
-60.4375

>  <SCORE.INTRA.VDW>
-0.796096

>  <SCORE.INTRA.VDW.0>
-1.83689

>  <SCORE.INTRA.norm>
-0.00724968

>  <SCORE.RESTR>
0

>  <SCORE.RESTR.CAVITY>
0

>  <SCORE.RESTR.norm>
0

>  <SCORE.SYSTEM>
0

>  <SCORE.SYSTEM.CONST>
0

>  <SCORE.SYSTEM.DIHEDRAL>
0

>  <SCORE.SYSTEM.SOLV>
0

>  <SCORE.SYSTEM.norm>
0

>  <SCORE.heavy>
46

>  <SCORE.norm>
-1.04795

>  <RMSD>
2.169

$$$$
lig.pdb
 OpenBabel11021811523D
libRbt.so/2013.1/901 2013/11/27
 46 52  0  0  0  0  0  0  0  0999 V2000
  160.1403   45.9851  143.6833 P   0  0  2  0  0  0  0  0  0  0  0  0
  160.8576   47.2937  143.9332 O   0  0  0  0  0  0  0  0  0  0  0  0
  159.3047   45.8986  142.4321 O   0  0  0  0  0  0  0  0  0  0  0  0
  159.2182   45.5756  144.9352 O   0  0  0  0  0  0  0  0  0  0  0  0
  159.2869   46.2756  146.1706 C   0  0  0  0  0  0  0  0  0  0  0  0
  158.6271   45.4581  147.2688 C   0  0  1  0  0  0  0  0  0  0  0  0
  157.3480   46.0198  147.5266 O   0  0  0  0  0  0  0  0  0  0  0  0
  158.3895   43.9886  146.9448 C   0  0  1  0  0  0  0  0  0  0  0  0
  159.3556   43.1899  147.6122 O   0  0  0  0  0  0  0  0  0  0  0  0
  157.0385   43.7056  147.5625 C   0  0  1  0  0  0  0  0  0  0  0  0
  157.2102   43.2667  148.9115 O   0  0  0  0  0  0  0  0  0  0  0  0
  156.3348   45.0303  147.6219 C   0  0  2  0  0  0  0  0  0  0  0  0
  155.4365   45.1573  146.4500 N   0  0  0  0  0  0  0  0  0  0  0  0
  154.4504   44.3041  146.1226 C   0  0  0  0  0  0  0  0  0  0  0  0
  153.8317   44.7034  144.9856 N   0  0  0  0  0  0  0  0  0  0  0  0
  154.4240   45.8349  144.5643 C   0  0  0  0  0  0  0  0  0  0  0  0
  154.2562   46.7746  143.4308 C   0  0  0  0  0  0  0  0  0  0  0  0
  153.3699   46.5713  142.5665 O   0  0  0  0  0  0  0  0  0  0  0  0
  155.0804   47.8344  143.3664 N   0  0  0  0  0  0  0  0  0  0  0  0
  156.0310   48.0473  144.2958 C   0  0  0  0  0  0  0  0  0  0  0  0
  156.8286   49.1329  144.1829 N   0  0  0  0  0  0  0  0  0  0  0  0
  156.2379   47.2306  145.3536 N   0  0  0  0  0  0  0  0  0  0  0  0
  155.4805   46.1281  145.5378 C   0  0  0  0  0  0  0  0  0  0  0  0
  159.5854   41.6148  147.2922 P   0  0  2  0  0  0  0  0  0  0  0  0
  158.2519   40.9079  147.2996 O   0  0  0  0  0  0  0  0  0  0  0  0
  160.7132   41.1621  148.2005 O   0  0  0  0  0  0  0  0  0  0  0  0
  160.1088   41.6449  145.7643 O   0  0  0  0  0  0  0  0  0  0  0  0
  161.4717   41.9588  145.4807 C   0  0  0  0  0  0  0  0  0  0  0  0
  161.7004   42.3966  144.0306 C   0  0  1  0  0  0  0  0  0  0  0  0
  161.6080   41.2572  143.1727 O   0  0  0  0  0  0  0  0  0  0  0  0
  160.7074   43.4294  143.5023 C   0  0  1  0  0  0  0  0  0  0  0  0
  161.1926   44.7646  143.6364 O   0  0  0  0  0  0  0  0  0  0  0  0
  160.5705   43.0294  142.0451 C   0  0  1  0  0  0  0  0  0  0  0  0
  161.5848   43.6496  141.2498 O   0  0  0  0  0  0  0  0  0  0  0  0
  160.8182   41.5358  142.0134 C   0  0  2  0  0  0  0  0  0  0  0  0
  159.5259   40.8160  142.1319 N   0  0  0  0  0  0  0  0  0  0  0  0
  159.1375   40.0653  143.1817 C   0  0  0  0  0  0  0  0  0  0  0  0
  157.8923   39.5441  142.9998 N   0  0  0  0  0  0  0  0  0  0  0  0
  157.4555   39.9714  141.8044 C   0  0  0  0  0  0  0  0  0  0  0  0
  156.2311   39.7887  140.9839 C   0  0  0  0  0  0  0  0  0  0  0  0
  155.2591   39.1072  141.3748 O   0  0  0  0  0  0  0  0  0  0  0  0
  156.1847   40.4056  139.8019 N   0  0  0  0  0  0  0  0  0  0  0  0
  157.1991   41.1531  139.3403 C   0  0  0  0  0  0  0  0  0  0  0  0
  157.0511   41.7164  138.1319 N   0  0  0  0  0  0  0  0  0  0  0  0
  158.3490   41.3597  140.0239 N   0  0  0  0  0  0  0  0  0  0  0  0
  158.5357   40.8050  141.2399 C   0  0  0  0  0  0  0  0  0  0  0  0
  1  3  2  6  0  0  0
  1 32  1  0  0  0  0
  1  2  1  0  0  0  0
  1  4  1  0  0  0  0
  4  5  1  0  0  0  0
  6  5  1  6  0  0  0
  7  6  1  0  0  0  0
  8  6  1  0  0  0  0
  8 10  1  0  0  0  0
  8  9  1  1  0  0  0
 10 11  1  1  0  0  0
 12 13  1  6  0  0  0
 12  7  1  0  0  0  0
 12 10  1  0  0  0  0
 14 13  1  0  0  0  0
 15 16  1  0  0  0  0
 15 14  2  0  0  0  0
 16 23  2  0  0  0  0
 17 16  1  0  0  0  0
 17 19  1  0  0  0  0
 18 17  2  0  0  0  0
 19 20  2  0  0  0  0
 20 22  1  0  0  0  0
 20 21  1  0  0  0  0
 23 13  1  0  0  0  0
 23 22  1  0  0  0  0
 24 25  2  1  0  0  0
 24  9  1  0  0  0  0
 24 26  1  0  0  0  0
 27 28  1  0  0  0  0
 27 24  1  0  0  0  0
 29 30  1  6  0  0  0
 29 28  1  0  0  0  0
 31 32  1  6  0  0  0
 31 29  1  0  0  0  0
 33 34  1  6  0  0  0
 33 35  1  0  0  0  0
 33 31  1  0  0  0  0
 35 36  1  1  0  0  0
 35 30  1  0  0  0  0
 36 37  1  0  0  0  0
 38 37  2  0  0  0  0
 39 38  1  0  0  0  0
 40 41  2  0  0  0  0
 40 39  1  0  0  0  0
 42 40  1  0  0  0  0
 43 42  2  0  0  0  0
 43 45  1  0  0  0  0
 44 43  1  0  0  0  0
 45 46  1  0  0  0  0
 46 39  2  0  0  0  0
 46 36  1  0  0  0  0
M  END
>  <CHROM.1>
172.41000324,2.37282585,158.19760433,43.61278045,144.25485251,-1.99767604
0.72701673,-2.18328484

>  <Name>
lig.pdb

>  <RI>
0

>  <Rbt.Current_Directory>
/home/itssahil/PROJECTS/Mol_Feturizer/New_Systems/rnas/4yb0

>  <Rbt.Executable>
rbdock ($Id: //depot/dev/client3/rdock/2013.1/src/exe/rbdock.cxx#4 $)

>  <Rbt.Library>
libRbt.so (2013.1, Build901 2013/11/27)

>  <Rbt.Parameter_File>
/export/apps/rDock/src/rDock_2013.1_src/data/scripts/dock_solv.prm

>  <Rbt.Receptor>
prm/pocket_docking_7.prm

>  <SCORE>
-48.3046

>  <SCORE.INTER>
-47.9784

>  <SCORE.INTER.CONST>
1

>  <SCORE.INTER.POLAR>
0

>  <SCORE.INTER.ROT>
2

>  <SCORE.INTER.SOLV>
27.9059

>  <SCORE.INTER.VDW>
-46.2209

>  <SCORE.INTER.norm>
-1.04301

>  <SCORE.INTRA>
-0.326221

>  <SCORE.INTRA.DIHEDRAL>
0.0474851

>  <SCORE.INTRA.DIHEDRAL.0>
4.74153

>  <SCORE.INTRA.POLAR>
0

>  <SCORE.INTRA.POLAR.0>
0

>  <SCORE.INTRA.REPUL>
0

>  <SCORE.INTRA.REPUL.0>
0

>  <SCORE.INTRA.SOLV>
0.660308

>  <SCORE.INTRA.SOLV.lig_0>
-60.4375

>  <SCORE.INTRA.VDW>
-0.680118

>  <SCORE.INTRA.VDW.0>
-1.83689

>  <SCORE.INTRA.norm>
-0.00709177

>  <SCORE.RESTR>
0

>  <SCORE.RESTR.CAVITY>
0

>  <SCORE.RESTR.norm>
0

>  <SCORE.SYSTEM>
0

>  <SCORE.SYSTEM.CONST>
0

>  <SCORE.SYSTEM.DIHEDRAL>
0

>  <SCORE.SYSTEM.SOLV>
0

>  <SCORE.SYSTEM.norm>
0

>  <SCORE.heavy>
46

>  <SCORE.norm>
-1.0501

>  <RMSD>
2.170

$$$$
lig.pdb
 OpenBabel11021811523D
libRbt.so/2013.1/901 2013/11/27
 46 52  0  0  0  0  0  0  0  0999 V2000
  160.1705   45.9409  143.7139 P   0  0  2  0  0  0  0  0  0  0  0  0
  160.8981   47.2428  143.9696 O   0  0  0  0  0  0  0  0  0  0  0  0
  159.3398   45.8642  142.4589 O   0  0  0  0  0  0  0  0  0  0  0  0
  159.2393   45.5371  144.9609 O   0  0  0  0  0  0  0  0  0  0  0  0
  159.3086   46.2341  146.1980 C   0  0  0  0  0  0  0  0  0  0  0  0
  158.6368   45.4202  147.2917 C   0  0  1  0  0  0  0  0  0  0  0  0
  157.3615   45.9924  147.5449 O   0  0  0  0  0  0  0  0  0  0  0  0
  158.3879   43.9534  146.9637 C   0  0  1  0  0  0  0  0  0  0  0  0
  159.3440   43.1450  147.6337 O   0  0  0  0  0  0  0  0  0  0  0  0
  157.0317   43.6810  147.5748 C   0  0  1  0  0  0  0  0  0  0  0  0
  157.1936   43.2380  148.9237 O   0  0  0  0  0  0  0  0  0  0  0  0
  156.3394   45.0116  147.6338 C   0  0  2  0  0  0  0  0  0  0  0  0
  155.4474   45.1488  146.4581 N   0  0  0  0  0  0  0  0  0  0  0  0
  154.4548   44.3053  146.1252 C   0  0  0  0  0  0  0  0  0  0  0  0
  153.8448   44.7120  144.9860 N   0  0  0  0  0  0  0  0  0  0  0  0
  154.4496   45.8386  144.5690 C   0  0  0  0  0  0  0  0  0  0  0  0
  154.2955   46.7815  143.4363 C   0  0  0  0  0  0  0  0  0  0  0  0
  153.4111   46.5877  142.5678 O   0  0  0  0  0  0  0  0  0  0  0  0
  155.1298   47.8336  143.3771 N   0  0  0  0  0  0  0  0  0  0  0  0
  156.0783   48.0363  144.3109 C   0  0  0  0  0  0  0  0  0  0  0  0
  156.8865   49.1145  144.2031 N   0  0  0  0  0  0  0  0  0  0  0  0
  156.2729   47.2161  145.3684 N   0  0  0  0  0  0  0  0  0  0  0  0
  155.5044   46.1205  145.5476 C   0  0  0  0  0  0  0  0  0  0  0  0
  159.5615   41.5686  147.3116 P   0  0  2  0  0  0  0  0  0  0  0  0
  158.2218   40.8733  147.3117 O   0  0  0  0  0  0  0  0  0  0  0  0
  160.6812   41.1043  148.2240 O   0  0  0  0  0  0  0  0  0  0  0  0
  160.0920   41.5971  145.7861 O   0  0  0  0  0  0  0  0  0  0  0  0
  161.4588   41.8996  145.5092 C   0  0  0  0  0  0  0  0  0  0  0  0
  161.6978   42.3383  144.0610 C   0  0  1  0  0  0  0  0  0  0  0  0
  161.5992   41.2015  143.2005 O   0  0  0  0  0  0  0  0  0  0  0  0
  160.7161   43.3808  143.5304 C   0  0  1  0  0  0  0  0  0  0  0  0
  161.2124   44.7114  143.6692 O   0  0  0  0  0  0  0  0  0  0  0  0
  160.5822   42.9849  142.0718 C   0  0  1  0  0  0  0  0  0  0  0  0
  161.6054   43.5977  141.2823 O   0  0  0  0  0  0  0  0  0  0  0  0
  160.8171   41.4891  142.0383 C   0  0  2  0  0  0  0  0  0  0  0  0
  159.5180   40.7805  142.1495 N   0  0  0  0  0  0  0  0  0  0  0  0
  159.1173   40.0334  143.1973 C   0  0  0  0  0  0  0  0  0  0  0  0
  157.8687   39.5228  143.0085 N   0  0  0  0  0  0  0  0  0  0  0  0
  157.4424   39.9534  141.8105 C   0  0  0  0  0  0  0  0  0  0  0  0
  156.2212   39.7809  140.9831 C   0  0  0  0  0  0  0  0  0  0  0  0
  155.2412   39.1078  141.3686 O   0  0  0  0  0  0  0  0  0  0  0  0
  156.1867   40.3979  139.8008 N   0  0  0  0  0  0  0  0  0  0  0  0
  157.2100   41.1366  139.3447 C   0  0  0  0  0  0  0  0  0  0  0  0
  157.0737   41.7008  138.1354 N   0  0  0  0  0  0  0  0  0  0  0  0
  158.3577   41.3336  140.0347 N   0  0  0  0  0  0  0  0  0  0  0  0
  158.5329   40.7776  141.2519 C   0  0  0  0  0  0  0  0  0  0  0  0
  1  3  2  6  0  0  0
  1 32  1  0  0  0  0
  1  2  1  0  0  0  0
  1  4  1  0  0  0  0
  4  5  1  0  0  0  0
  6  5  1  6  0  0  0
  7  6  1  0  0  0  0
  8  6  1  0  0  0  0
  8 10  1  0  0  0  0
  8  9  1  1  0  0  0
 10 11  1  1  0  0  0
 12 13  1  6  0  0  0
 12  7  1  0  0  0  0
 12 10  1  0  0  0  0
 14 13  1  0  0  0  0
 15 16  1  0  0  0  0
 15 14  2  0  0  0  0
 16 23  2  0  0  0  0
 17 16  1  0  0  0  0
 17 19  1  0  0  0  0
 18 17  2  0  0  0  0
 19 20  2  0  0  0  0
 20 22  1  0  0  0  0
 20 21  1  0  0  0  0
 23 13  1  0  0  0  0
 23 22  1  0  0  0  0
 24 25  2  1  0  0  0
 24  9  1  0  0  0  0
 24 26  1  0  0  0  0
 27 28  1  0  0  0  0
 27 24  1  0  0  0  0
 29 30  1  6  0  0  0
 29 28  1  0  0  0  0
 31 32  1  6  0  0  0
 31 29  1  0  0  0  0
 33 34  1  6  0  0  0
 33 35  1  0  0  0  0
 33 31  1  0  0  0  0
 35 36  1  1  0  0  0
 35 30  1  0  0  0  0
 36 37  1  0  0  0  0
 38 37  2  0  0  0  0
 39 38  1  0  0  0  0
 40 41  2  0  0  0  0
 40 39  1  0  0  0  0
 42 40  1  0  0  0  0
 43 42  2  0  0  0  0
 43 45  1  0  0  0  0
 44 43  1  0  0  0  0
 45 46  1  0  0  0  0
 46 39  2  0  0  0  0
 46 36  1  0  0  0  0
M  END
>  <CHROM.1>
172.45519607,2.51818451,158.20516307,43.58377618,144.27167688,-1.99458901
0.73678451,-2.18261889

>  <Name>
lig.pdb

>  <RI>
0

>  <Rbt.Current_Directory>
/home/itssahil/PROJECTS/Mol_Feturizer/New_Systems/rnas/4yb0

>  <Rbt.Executable>
rbdock ($Id: //depot/dev/client3/rdock/2013.1/src/exe/rbdock.cxx#4 $)

>  <Rbt.Library>
libRbt.so (2013.1, Build901 2013/11/27)

>  <Rbt.Parameter_File>
/export/apps/rDock/src/rDock_2013.1_src/data/scripts/dock_solv.prm

>  <Rbt.Receptor>
prm/pocket_docking_6.prm

>  <SCORE>
-48.3592

>  <SCORE.INTER>
-48.0322

>  <SCORE.INTER.CONST>
1

>  <SCORE.INTER.POLAR>
0

>  <SCORE.INTER.ROT>
2

>  <SCORE.INTER.SOLV>
27.8566

>  <SCORE.INTER.VDW>
-46.2404

>  <SCORE.INTER.norm>
-1.04418

>  <SCORE.INTRA>
-0.326948

>  <SCORE.INTRA.DIHEDRAL>
0.0480409

>  <SCORE.INTRA.DIHEDRAL.0>
4.74153

>  <SCORE.INTRA.POLAR>
0

>  <SCORE.INTRA.POLAR.0>
0

>  <SCORE.INTRA.REPUL>
0

>  <SCORE.INTRA.REPUL.0>
0

>  <SCORE.INTRA.SOLV>
0.663724

>  <SCORE.INTRA.SOLV.lig_0>
-60.4375

>  <SCORE.INTRA.VDW>
-0.682831

>  <SCORE.INTRA.VDW.0>
-1.83689

>  <SCORE.INTRA.norm>
-0.00710757

>  <SCORE.RESTR>
0

>  <SCORE.RESTR.CAVITY>
0

>  <SCORE.RESTR.norm>
0

>  <SCORE.SYSTEM>
0

>  <SCORE.SYSTEM.CONST>
0

>  <SCORE.SYSTEM.DIHEDRAL>
0

>  <SCORE.SYSTEM.SOLV>
0

>  <SCORE.SYSTEM.norm>
0

>  <SCORE.heavy>
46

>  <SCORE.norm>
-1.05129

>  <RMSD>
2.182

$$$$
lig.pdb
 OpenBabel11021811523D
libRbt.so/2013.1/901 2013/11/27
 46 52  0  0  0  0  0  0  0  0999 V2000
  160.0725   45.8965  143.6323 P   0  0  2  0  0  0  0  0  0  0  0  0
  160.7823   47.2132  143.8605 O   0  0  0  0  0  0  0  0  0  0  0  0
  159.2170   45.7934  142.3959 O   0  0  0  0  0  0  0  0  0  0  0  0
  159.1752   45.4883  144.9024 O   0  0  0  0  0  0  0  0  0  0  0  0
  159.2583   46.1981  146.1314 C   0  0  0  0  0  0  0  0  0  0  0  0
  158.6242   45.3831  147.2464 C   0  0  1  0  0  0  0  0  0  0  0  0
  157.3447   45.9354  147.5216 O   0  0  0  0  0  0  0  0  0  0  0  0
  158.3944   43.9092  146.9373 C   0  0  1  0  0  0  0  0  0  0  0  0
  159.3785   43.1239  147.5941 O   0  0  0  0  0  0  0  0  0  0  0  0
  157.0564   43.6189  147.5796 C   0  0  1  0  0  0  0  0  0  0  0  0
  157.2545   43.1916  148.9287 O   0  0  0  0  0  0  0  0  0  0  0  0
  156.3421   44.9378  147.6411 C   0  0  2  0  0  0  0  0  0  0  0  0
  155.4232   45.0482  146.4835 N   0  0  0  0  0  0  0  0  0  0  0  0
  154.2131   44.4705  146.3860 C   0  0  0  0  0  0  0  0  0  0  0  0
  153.6412   44.7595  145.1924 N   0  0  0  0  0  0  0  0  0  0  0  0
  154.4921   45.5377  144.5002 C   0  0  0  0  0  0  0  0  0  0  0  0
  154.5038   46.1964  143.1728 C   0  0  0  0  0  0  0  0  0  0  0  0
  153.5285   46.0680  142.3943 O   0  0  0  0  0  0  0  0  0  0  0  0
  155.5853   46.9225  142.8417 N   0  0  0  0  0  0  0  0  0  0  0  0
  156.6302   47.0560  143.6803 C   0  0  0  0  0  0  0  0  0  0  0  0
  157.6895   47.8027  143.2961 N   0  0  0  0  0  0  0  0  0  0  0  0
  156.6843   46.4824  144.9037 N   0  0  0  0  0  0  0  0  0  0  0  0
  155.6644   45.7248  145.3607 C   0  0  0  0  0  0  0  0  0  0  0  0
  159.6169   41.5486  147.2818 P   0  0  2  0  0  0  0  0  0  0  0  0
  158.2900   40.8301  147.3168 O   0  0  0  0  0  0  0  0  0  0  0  0
  160.7637   41.1125  148.1744 O   0  0  0  0  0  0  0  0  0  0  0  0
  160.1144   41.5719  145.7452 O   0  0  0  0  0  0  0  0  0  0  0  0
  161.4696   41.8955  145.4365 C   0  0  0  0  0  0  0  0  0  0  0  0
  161.6701   42.3245  143.9796 C   0  0  1  0  0  0  0  0  0  0  0  0
  161.5734   41.1780  143.1317 O   0  0  0  0  0  0  0  0  0  0  0  0
  160.6592   43.3446  143.4605 C   0  0  1  0  0  0  0  0  0  0  0  0
  161.1348   44.6850  143.5766 O   0  0  0  0  0  0  0  0  0  0  0  0
  160.5015   42.9326  142.0088 C   0  0  1  0  0  0  0  0  0  0  0  0
  161.4968   43.5556  141.1921 O   0  0  0  0  0  0  0  0  0  0  0  0
  160.7620   41.4409  141.9839 C   0  0  2  0  0  0  0  0  0  0  0  0
  159.4783   40.7108  142.1293 N   0  0  0  0  0  0  0  0  0  0  0  0
  159.1172   39.9586  143.1877 C   0  0  0  0  0  0  0  0  0  0  0  0
  157.8729   39.4269  143.0316 N   0  0  0  0  0  0  0  0  0  0  0  0
  157.4087   39.8488  141.8447 C   0  0  0  0  0  0  0  0  0  0  0  0
  156.1696   39.6548  141.0492 C   0  0  0  0  0  0  0  0  0  0  0  0
  155.2113   38.9659  141.4604 O   0  0  0  0  0  0  0  0  0  0  0  0
  156.0944   40.2695  139.8676 N   0  0  0  0  0  0  0  0  0  0  0  0
  157.0931   41.0246  139.3846 C   0  0  0  0  0  0  0  0  0  0  0  0
  156.9162   41.5849  138.1787 N   0  0  0  0  0  0  0  0  0  0  0  0
  158.2548   41.2417  140.0446 N   0  0  0  0  0  0  0  0  0  0  0  0
  158.4705   40.6903  141.2574 C   0  0  0  0  0  0  0  0  0  0  0  0
  1  3  2  6  0  0  0
  1 32  1  0  0  0  0
  1  2  1  0  0  0  0
  1  4  1  0  0  0  0
  4  5  1  0  0  0  0
  6  5  1  6  0  0  0
  7  6  1  0  0  0  0
  8  6  1  0  0  0  0
  8 10  1  0  0  0  0
  8  9  1  1  0  0  0
 10 11  1  1  0  0  0
 12 13  1  6  0  0  0
 12  7  1  0  0  0  0
 12 10  1  0  0  0  0
 14 13  1  0  0  0  0
 15 16  1  0  0  0  0
 15 14  2  0  0  0  0
 16 23  2  0  0  0  0
 17 16  1  0  0  0  0
 17 19  1  0  0  0  0
 18 17  2  0  0  0  0
 19 20  2  0  0  0  0
 20 22  1  0  0  0  0
 20 21  1  0  0  0  0
 23 13  1  0  0  0  0
 23 22  1  0  0  0  0
 24 25  2  1  0  0  0
 24  9  1  0  0  0  0
 24 26  1  0  0  0  0
 27 28  1  0  0  0  0
 27 24  1  0  0  0  0
 29 30  1  6  0  0  0
 29 28  1  0  0  0  0
 31 32  1  6  0  0  0
 31 29  1  0  0  0  0
 33 34  1  6  0  0  0
 33 35  1  0  0  0  0
 33 31  1  0  0  0  0
 35 36  1  1  0  0  0
 35 30  1  0  0  0  0
 36 37  1  0  0  0  0
 38 37  2  0  0  0  0
 39 38  1  0  0  0  0
 40 41  2  0  0  0  0
 40 39  1  0  0  0  0
 42 40  1  0  0  0  0
 43 42  2  0  0  0  0
 43 45  1  0  0  0  0
 44 43  1  0  0  0  0
 45 46  1  0  0  0  0
 46 39  2  0  0  0  0
 46 36  1  0  0  0  0
M  END
>  <CHROM.1>
-165.44421688,1.97885280,158.22387210,43.42931245,144.19593055,-1.80633563
0.69721168,-2.16473217

>  <Name>
lig.pdb

>  <RI>
0

>  <Rbt.Current_Directory>
/home/itssahil/PROJECTS/Mol_Feturizer/New_Systems/rnas/4yb0

>  <Rbt.Executable>
rbdock ($Id: //depot/dev/client3/rdock/2013.1/src/exe/rbdock.cxx#4 $)

>  <Rbt.Library>
libRbt.so (2013.1, Build901 2013/11/27)

>  <Rbt.Parameter_File>
/export/apps/rDock/src/rDock_2013.1_src/data/scripts/dock_solv.prm

>  <Rbt.Receptor>
prm/pocket_docking_3.prm

>  <SCORE>
-47.2168

>  <SCORE.INTER>
-47.7601

>  <SCORE.INTER.CONST>
1

>  <SCORE.INTER.POLAR>
0

>  <SCORE.INTER.ROT>
2

>  <SCORE.INTER.SOLV>
27.7597

>  <SCORE.INTER.VDW>
-46.0266

>  <SCORE.INTER.norm>
-1.03826

>  <SCORE.INTRA>
0.532

>  <SCORE.INTRA.DIHEDRAL>
0.0954087

>  <SCORE.INTRA.DIHEDRAL.0>
4.74153

>  <SCORE.INTRA.POLAR>
0

>  <SCORE.INTRA.POLAR.0>
0

>  <SCORE.INTRA.REPUL>
0

>  <SCORE.INTRA.REPUL.0>
0

>  <SCORE.INTRA.SOLV>
3.7942

>  <SCORE.INTRA.SOLV.lig_0>
-60.4375

>  <SCORE.INTRA.VDW>
-1.41281

>  <SCORE.INTRA.VDW.0>
-1.83689

>  <SCORE.INTRA.norm>
0.0115652

>  <SCORE.RESTR>
0.0112972

>  <SCORE.RESTR.CAVITY>
0.0112972

>  <SCORE.RESTR.norm>
0.000245592

>  <SCORE.SYSTEM>
0

>  <SCORE.SYSTEM.CONST>
0

>  <SCORE.SYSTEM.DIHEDRAL>
0

>  <SCORE.SYSTEM.SOLV>
0

>  <SCORE.SYSTEM.norm>
0

>  <SCORE.heavy>
46

>  <SCORE.norm>
-1.02645

>  <RMSD>
2.189

$$$$
lig.pdb
 OpenBabel11021811523D
libRbt.so/2013.1/901 2013/11/27
 46 52  0  0  0  0  0  0  0  0999 V2000
  159.5080   41.9343  147.7482 P   0  0  2  0  0  0  0  0  0  0  0  0
  160.6426   41.3050  148.5269 O   0  0  0  0  0  0  0  0  0  0  0  0
  158.1739   41.2363  147.8114 O   0  0  0  0  0  0  0  0  0  0  0  0
  159.9006   42.1337  146.2018 O   0  0  0  0  0  0  0  0  0  0  0  0
  161.2301   41.9341  145.7397 C   0  0  0  0  0  0  0  0  0  0  0  0
  161.4020   42.5587  144.3649 C   0  0  1  0  0  0  0  0  0  0  0  0
  161.3797   41.5147  143.4019 O   0  0  0  0  0  0  0  0  0  0  0  0
  160.3184   43.5453  143.9487 C   0  0  1  0  0  0  0  0  0  0  0  0
  160.8088   44.8726  144.0686 O   0  0  0  0  0  0  0  0  0  0  0  0
  160.1183   43.2495  142.4792 C   0  0  1  0  0  0  0  0  0  0  0  0
  161.0013   44.0608  141.7019 O   0  0  0  0  0  0  0  0  0  0  0  0
  160.5550   41.8259  142.2895 C   0  0  2  0  0  0  0  0  0  0  0  0
  159.3646   40.9434  142.3202 N   0  0  0  0  0  0  0  0  0  0  0  0
  159.0508   40.0854  143.3065 C   0  0  0  0  0  0  0  0  0  0  0  0
  157.9070   39.4207  143.0149 N   0  0  0  0  0  0  0  0  0  0  0  0
  157.4680   39.8518  141.8189 C   0  0  0  0  0  0  0  0  0  0  0  0
  156.3170   39.5621  140.9317 C   0  0  0  0  0  0  0  0  0  0  0  0
  155.4604   38.7083  141.2653 O   0  0  0  0  0  0  0  0  0  0  0  0
  156.2313   40.2381  139.7732 N   0  0  0  0  0  0  0  0  0  0  0  0
  157.1542   41.1524  139.4191 C   0  0  0  0  0  0  0  0  0  0  0  0
  157.0144   41.8057  138.2440 N   0  0  0  0  0  0  0  0  0  0  0  0
  158.2274   41.4643  140.1806 N   0  0  0  0  0  0  0  0  0  0  0  0
  158.4349   40.8580  141.3690 C   0  0  0  0  0  0  0  0  0  0  0  0
  159.8590   46.1861  143.9760 P   0  0  2  0  0  0  0  0  0  0  0  0
  158.9830   46.0789  142.7515 O   0  0  0  0  0  0  0  0  0  0  0  0
  160.7727   47.3801  144.1791 O   0  0  0  0  0  0  0  0  0  0  0  0
  158.9060   46.0160  145.2692 O   0  0  0  0  0  0  0  0  0  0  0  0
  159.3830   46.3833  146.5630 C   0  0  0  0  0  0  0  0  0  0  0  0
  158.5795   45.7510  147.7037 C   0  0  1  0  0  0  0  0  0  0  0  0
  157.3091   46.3985  147.8024 O   0  0  0  0  0  0  0  0  0  0  0  0
  158.3033   44.2570  147.5500 C   0  0  1  0  0  0  0  0  0  0  0  0
  159.2708   43.4555  148.2265 O   0  0  0  0  0  0  0  0  0  0  0  0
  156.9279   44.1171  148.1749 C   0  0  1  0  0  0  0  0  0  0  0  0
  157.0288   43.9174  149.5876 O   0  0  0  0  0  0  0  0  0  0  0  0
  156.2478   45.4518  147.9523 C   0  0  2  0  0  0  0  0  0  0  0  0
  155.4669   45.4064  146.6912 N   0  0  0  0  0  0  0  0  0  0  0  0
  154.5788   44.4516  146.3504 C   0  0  0  0  0  0  0  0  0  0  0  0
  154.0141   44.6944  145.1349 N   0  0  0  0  0  0  0  0  0  0  0  0
  154.5425   45.8396  144.6750 C   0  0  0  0  0  0  0  0  0  0  0  0
  154.4022   46.6677  143.4502 C   0  0  0  0  0  0  0  0  0  0  0  0
  153.6169   46.3672  142.5254 O   0  0  0  0  0  0  0  0  0  0  0  0
  155.1351   47.7796  143.3718 N   0  0  0  0  0  0  0  0  0  0  0  0
  155.9877   48.1490  144.3401 C   0  0  0  0  0  0  0  0  0  0  0  0
  156.6853   49.2790  144.1508 N   0  0  0  0  0  0  0  0  0  0  0  0
  156.1776   47.4442  145.4800 N   0  0  0  0  0  0  0  0  0  0  0  0
  155.4976   46.2999  145.7028 C   0  0  0  0  0  0  0  0  0  0  0  0
  1  3  2  1  0  0  0
  1 32  1  0  0  0  0
  1  2  1  0  0  0  0
  1  4  1  0  0  0  0
  4  5  1  0  0  0  0
  6  5  1  1  0  0  0
  7  6  1  0  0  0  0
  8  6  1  0  0  0  0
  8 10  1  0  0  0  0
  8  9  1  6  0  0  0
 10 11  1  6  0  0  0
 12 13  1  1  0  0  0
 12  7  1  0  0  0  0
 12 10  1  0  0  0  0
 14 13  1  0  0  0  0
 15 16  1  0  0  0  0
 15 14  2  0  0  0  0
 16 23  2  0  0  0  0
 17 16  1  0  0  0  0
 17 19  1  0  0  0  0
 18 17  2  0  0  0  0
 19 20  2  0  0  0  0
 20 22  1  0  0  0  0
 20 21  1  0  0  0  0
 23 13  1  0  0  0  0
 23 22  1  0  0  0  0
 24 25  2  6  0  0  0
 24  9  1  0  0  0  0
 24 26  1  0  0  0  0
 27 28  1  0  0  0  0
 27 24  1  0  0  0  0
 29 30  1  6  0  0  0
 29 28  1  0  0  0  0
 31 32  1  1  0  0  0
 31 29  1  0  0  0  0
 33 34  1  1  0  0  0
 33 35  1  0  0  0  0
 33 31  1  0  0  0  0
 35 36  1  6  0  0  0
 35 30  1  0  0  0  0
 36 37  1  0  0  0  0
 38 37  2  0  0  0  0
 39 38  1  0  0  0  0
 40 41  2  0  0  0  0
 40 39  1  0  0  0  0
 42 40  1  0  0  0  0
 43 42  2  0  0  0  0
 43 45  1  0  0  0  0
 44 43  1  0  0  0  0
 45 46  1  0  0  0  0
 46 39  2  0  0  0  0
 46 36  1  0  0  0  0
M  END
>  <CHROM.1>
6.07433749,165.28618506,158.09521519,43.76658821,144.51444010,-1.79034882
0.85204961,-2.19674532

>  <Name>
lig.pdb

>  <RI>
0

>  <Rbt.Current_Directory>
/home/itssahil/PROJECTS/Mol_Feturizer/New_Systems/rnas/4yb0

>  <Rbt.Executable>
rbdock ($Id: //depot/dev/client3/rdock/2013.1/src/exe/rbdock.cxx#4 $)

>  <Rbt.Library>
libRbt.so (2013.1, Build901 2013/11/27)

>  <Rbt.Parameter_File>
/export/apps/rDock/src/rDock_2013.1_src/data/scripts/dock_solv.prm

>  <Rbt.Receptor>
prm/pocket_docking_5.prm

>  <SCORE>
-46.3063

>  <SCORE.INTER>
-45.8492

>  <SCORE.INTER.CONST>
1

>  <SCORE.INTER.POLAR>
0

>  <SCORE.INTER.ROT>
2

>  <SCORE.INTER.SOLV>
26.1221

>  <SCORE.INTER.VDW>
-44.2068

>  <SCORE.INTER.norm>
-0.996721

>  <SCORE.INTRA>
-0.457127

>  <SCORE.INTRA.DIHEDRAL>
0.086262

>  <SCORE.INTRA.DIHEDRAL.0>
4.74153

>  <SCORE.INTRA.POLAR>
0

>  <SCORE.INTRA.POLAR.0>
0

>  <SCORE.INTRA.REPUL>
0

>  <SCORE.INTRA.REPUL.0>
0

>  <SCORE.INTRA.SOLV>
0.731137

>  <SCORE.INTRA.SOLV.lig_0>
-60.4375

>  <SCORE.INTRA.VDW>
-0.865827

>  <SCORE.INTRA.VDW.0>
-1.83689

>  <SCORE.INTRA.norm>
-0.00993754

>  <SCORE.RESTR>
0

>  <SCORE.RESTR.CAVITY>
0

>  <SCORE.RESTR.norm>
0

>  <SCORE.SYSTEM>
0

>  <SCORE.SYSTEM.CONST>
0

>  <SCORE.SYSTEM.DIHEDRAL>
0

>  <SCORE.SYSTEM.SOLV>
0

>  <SCORE.SYSTEM.norm>
0

>  <SCORE.heavy>
46

>  <SCORE.norm>
-1.00666

>  <RMSD>
2.200

$$$$
lig.pdb
 OpenBabel11021811523D
libRbt.so/2013.1/901 2013/11/27
 46 52  0  0  0  0  0  0  0  0999 V2000
  159.5359   41.9612  147.7709 P   0  0  2  0  0  0  0  0  0  0  0  0
  160.6907   41.3475  148.5320 O   0  0  0  0  0  0  0  0  0  0  0  0
  158.2165   41.2365  147.8414 O   0  0  0  0  0  0  0  0  0  0  0  0
  159.9081   42.1823  146.2225 O   0  0  0  0  0  0  0  0  0  0  0  0
  161.2364   42.0133  145.7448 C   0  0  0  0  0  0  0  0  0  0  0  0
  161.3815   42.6535  144.3741 C   0  0  1  0  0  0  0  0  0  0  0  0
  161.3697   41.6179  143.4018 O   0  0  0  0  0  0  0  0  0  0  0  0
  160.2743   43.6221  143.9782 C   0  0  1  0  0  0  0  0  0  0  0  0
  160.7397   44.9577  144.1053 O   0  0  0  0  0  0  0  0  0  0  0  0
  160.0647   43.3357  142.5082 C   0  0  1  0  0  0  0  0  0  0  0  0
  160.9233   44.1713  141.7294 O   0  0  0  0  0  0  0  0  0  0  0  0
  160.5274   41.9228  142.3008 C   0  0  2  0  0  0  0  0  0  0  0  0
  159.3550   41.0166  142.3358 N   0  0  0  0  0  0  0  0  0  0  0  0
  159.0538   40.1632  143.3300 C   0  0  0  0  0  0  0  0  0  0  0  0
  157.9252   39.4723  143.0404 N   0  0  0  0  0  0  0  0  0  0  0  0
  157.4834   39.8813  141.8377 C   0  0  0  0  0  0  0  0  0  0  0  0
  156.3428   39.5586  140.9484 C   0  0  0  0  0  0  0  0  0  0  0  0
  155.5021   38.6913  141.2873 O   0  0  0  0  0  0  0  0  0  0  0  0
  156.2491   40.2202  139.7822 N   0  0  0  0  0  0  0  0  0  0  0  0
  157.1549   41.1491  139.4223 C   0  0  0  0  0  0  0  0  0  0  0  0
  157.0076   41.7866  138.2394 N   0  0  0  0  0  0  0  0  0  0  0  0
  158.2178   41.4910  140.1853 N   0  0  0  0  0  0  0  0  0  0  0  0
  158.4319   40.9020  141.3812 C   0  0  0  0  0  0  0  0  0  0  0  0
  159.7633   46.2530  144.0346 P   0  0  2  0  0  0  0  0  0  0  0  0
  158.8768   46.1396  142.8182 O   0  0  0  0  0  0  0  0  0  0  0  0
  160.6555   47.4629  144.2393 O   0  0  0  0  0  0  0  0  0  0  0  0
  158.8276   46.0524  145.3359 O   0  0  0  0  0  0  0  0  0  0  0  0
  159.3108   46.4174  146.6281 C   0  0  0  0  0  0  0  0  0  0  0  0
  158.5319   45.7591  147.7711 C   0  0  1  0  0  0  0  0  0  0  0  0
  157.2502   46.3804  147.8890 O   0  0  0  0  0  0  0  0  0  0  0  0
  158.2837   44.2614  147.6065 C   0  0  1  0  0  0  0  0  0  0  0  0
  159.2738   43.4731  148.2656 O   0  0  0  0  0  0  0  0  0  0  0  0
  156.9178   44.0886  148.2443 C   0  0  1  0  0  0  0  0  0  0  0  0
  157.0376   43.8782  149.6540 O   0  0  0  0  0  0  0  0  0  0  0  0
  156.2093   45.4116  148.0411 C   0  0  2  0  0  0  0  0  0  0  0  0
  155.4163   45.3620  146.7877 N   0  0  0  0  0  0  0  0  0  0  0  0
  154.4765   44.4437  146.4878 C   0  0  0  0  0  0  0  0  0  0  0  0
  153.9148   44.6721  145.2681 N   0  0  0  0  0  0  0  0  0  0  0  0
  154.4984   45.7707  144.7634 C   0  0  0  0  0  0  0  0  0  0  0  0
  154.3911   46.5605  143.5103 C   0  0  0  0  0  0  0  0  0  0  0  0
  153.5832   46.2688  142.6024 O   0  0  0  0  0  0  0  0  0  0  0  0
  155.1805   47.6288  143.3867 N   0  0  0  0  0  0  0  0  0  0  0  0
  156.0596   47.9873  144.3352 C   0  0  0  0  0  0  0  0  0  0  0  0
  156.8137   49.0715  144.1004 N   0  0  0  0  0  0  0  0  0  0  0  0
  156.2221   47.3149  145.4986 N   0  0  0  0  0  0  0  0  0  0  0  0
  155.4852   46.2167  145.7674 C   0  0  0  0  0  0  0  0  0  0  0  0
  1  3  2  1  0  0  0
  1 32  1  0  0  0  0
  1  2  1  0  0  0  0
  1  4  1  0  0  0  0
  4  5  1  0  0  0  0
  6  5  1  1  0  0  0
  7  6  1  0  0  0  0
  8  6  1  0  0  0  0
  8 10  1  0  0  0  0
  8  9  1  6  0  0  0
 10 11  1  6  0  0  0
 12 13  1  1  0  0  0
 12  7  1  0  0  0  0
 12 10  1  0  0  0  0
 14 13  1  0  0  0  0
 15 16  1  0  0  0  0
 15 14  2  0  0  0  0
 16 23  2  0  0  0  0
 17 16  1  0  0  0  0
 17 19  1  0  0  0  0
 18 17  2  0  0  0  0
 19 20  2  0  0  0  0
 20 22  1  0  0  0  0
 20 21  1  0  0  0  0
 23 13  1  0  0  0  0
 23 22  1  0  0  0  0
 24 25  2  6  0  0  0
 24  9  1  0  0  0  0
 24 26  1  0  0  0  0
 27 28  1  0  0  0  0
 27 24  1  0  0  0  0
 29 30  1  6  0  0  0
 29 28  1  0  0  0  0
 31 32  1  1  0  0  0
 31 29  1  0  0  0  0
 33 34  1  1  0  0  0
 33 35  1  0  0  0  0
 33 31  1  0  0  0  0
 35 36  1  6  0  0  0
 35 30  1  0  0  0  0
 36 37  1  0  0  0  0
 38 37  2  0  0  0  0
 39 38  1  0  0  0  0
 40 41  2  0  0  0  0
 40 39  1  0  0  0  0
 42 40  1  0  0  0  0
 43 42  2  0  0  0  0
 43 45  1  0  0  0  0
 44 43  1  0  0  0  0
 45 46  1  0  0  0  0
 46 39  2  0  0  0  0
 46 36  1  0  0  0  0
M  END
>  <CHROM.1>
7.51541347,170.17248134,158.07684223,43.77470154,144.55378544,-1.76060711
0.84511625,-2.18190495

>  <Name>
lig.pdb

>  <RI>
0

>  <Rbt.Current_Directory>
/home/itssahil/PROJECTS/Mol_Feturizer/New_Systems/rnas/4yb0

>  <Rbt.Executable>
rbdock ($Id: //depot/dev/client3/rdock/2013.1/src/exe/rbdock.cxx#4 $)

>  <Rbt.Library>
libRbt.so (2013.1, Build901 2013/11/27)

>  <Rbt.Parameter_File>
/export/apps/rDock/src/rDock_2013.1_src/data/scripts/dock_solv.prm

>  <Rbt.Receptor>
prm/pocket_docking_5.prm

>  <SCORE>
-46.299

>  <SCORE.INTER>
-45.9042

>  <SCORE.INTER.CONST>
1

>  <SCORE.INTER.POLAR>
0

>  <SCORE.INTER.ROT>
2

>  <SCORE.INTER.SOLV>
25.6345

>  <SCORE.INTER.VDW>
-44.081

>  <SCORE.INTER.norm>
-0.997917

>  <SCORE.INTRA>
-0.394792

>  <SCORE.INTRA.DIHEDRAL>
0.0710092

>  <SCORE.INTRA.DIHEDRAL.0>
4.74153

>  <SCORE.INTRA.POLAR>
0

>  <SCORE.INTRA.POLAR.0>
0

>  <SCORE.INTRA.REPUL>
0

>  <SCORE.INTRA.REPUL.0>
0

>  <SCORE.INTRA.SOLV>
1.60259

>  <SCORE.INTRA.SOLV.lig_0>
-60.4375

>  <SCORE.INTRA.VDW>
-1.23159

>  <SCORE.INTRA.VDW.0>
-1.83689

>  <SCORE.INTRA.norm>
-0.00858243

>  <SCORE.RESTR>
0

>  <SCORE.RESTR.CAVITY>
0

>  <SCORE.RESTR.norm>
0

>  <SCORE.SYSTEM>
0

>  <SCORE.SYSTEM.CONST>
0

>  <SCORE.SYSTEM.DIHEDRAL>
0

>  <SCORE.SYSTEM.SOLV>
0

>  <SCORE.SYSTEM.norm>
0

>  <SCORE.heavy>
46

>  <SCORE.norm>
-1.0065

>  <RMSD>
2.203

$$$$
lig.pdb
 OpenBabel11021811523D
libRbt.so/2013.1/901 2013/11/27
 46 52  0  0  0  0  0  0  0  0999 V2000
  159.5167   41.9375  147.7637 P   0  0  2  0  0  0  0  0  0  0  0  0
  160.6527   41.3089  148.5407 O   0  0  0  0  0  0  0  0  0  0  0  0
  158.1838   41.2370  147.8262 O   0  0  0  0  0  0  0  0  0  0  0  0
  159.9081   42.1404  146.2175 O   0  0  0  0  0  0  0  0  0  0  0  0
  161.2378   41.9441  145.7544 C   0  0  0  0  0  0  0  0  0  0  0  0
  161.4079   42.5715  144.3807 C   0  0  1  0  0  0  0  0  0  0  0  0
  161.3871   41.5291  143.4158 O   0  0  0  0  0  0  0  0  0  0  0  0
  160.3223   43.5568  143.9666 C   0  0  1  0  0  0  0  0  0  0  0  0
  160.8103   44.8847  144.0887 O   0  0  0  0  0  0  0  0  0  0  0  0
  160.1221   43.2633  142.4967 C   0  0  1  0  0  0  0  0  0  0  0  0
  161.0032   44.0776  141.7205 O   0  0  0  0  0  0  0  0  0  0  0  0
  160.5613   41.8408  142.3043 C   0  0  2  0  0  0  0  0  0  0  0  0
  159.3726   40.9560  142.3340 N   0  0  0  0  0  0  0  0  0  0  0  0
  159.0590   40.0981  143.3204 C   0  0  0  0  0  0  0  0  0  0  0  0
  157.9169   39.4311  143.0277 N   0  0  0  0  0  0  0  0  0  0  0  0
  157.4788   39.8605  141.8308 C   0  0  0  0  0  0  0  0  0  0  0  0
  156.3295   39.5680  140.9422 C   0  0  0  0  0  0  0  0  0  0  0  0
  155.4741   38.7128  141.2752 O   0  0  0  0  0  0  0  0  0  0  0  0
  156.2442   40.2431  139.7832 N   0  0  0  0  0  0  0  0  0  0  0  0
  157.1658   41.1589  139.4297 C   0  0  0  0  0  0  0  0  0  0  0  0
  157.0263   41.8111  138.2539 N   0  0  0  0  0  0  0  0  0  0  0  0
  158.2373   41.4734  140.1924 N   0  0  0  0  0  0  0  0  0  0  0  0
  158.4444   40.8682  141.3815 C   0  0  0  0  0  0  0  0  0  0  0  0
  159.8580   46.1967  143.9989 P   0  0  2  0  0  0  0  0  0  0  0  0
  158.9817   46.0901  142.7746 O   0  0  0  0  0  0  0  0  0  0  0  0
  160.7697   47.3920  144.2038 O   0  0  0  0  0  0  0  0  0  0  0  0
  158.9060   46.0225  145.2922 O   0  0  0  0  0  0  0  0  0  0  0  0
  159.3829   46.3884  146.5865 C   0  0  0  0  0  0  0  0  0  0  0  0
  158.5811   45.7526  147.7264 C   0  0  1  0  0  0  0  0  0  0  0  0
  157.3096   46.3975  147.8269 O   0  0  0  0  0  0  0  0  0  0  0  0
  158.3076   44.2583  147.5701 C   0  0  1  0  0  0  0  0  0  0  0  0
  159.2769   43.4574  148.2448 O   0  0  0  0  0  0  0  0  0  0  0  0
  156.9327   44.1148  148.1955 C   0  0  1  0  0  0  0  0  0  0  0  0
  157.0347   43.9127  149.6078 O   0  0  0  0  0  0  0  0  0  0  0  0
  156.2500   45.4486  147.9756 C   0  0  2  0  0  0  0  0  0  0  0  0
  155.4687   45.4040  146.7147 N   0  0  0  0  0  0  0  0  0  0  0  0
  154.5769   44.4520  146.3758 C   0  0  0  0  0  0  0  0  0  0  0  0
  154.0128   44.6949  145.1600 N   0  0  0  0  0  0  0  0  0  0  0  0
  154.5453   45.8374  144.6981 C   0  0  0  0  0  0  0  0  0  0  0  0
  154.4078   46.6640  143.4719 C   0  0  0  0  0  0  0  0  0  0  0  0
  153.6212   46.3649  142.5479 O   0  0  0  0  0  0  0  0  0  0  0  0
  155.1448   47.7731  143.3916 N   0  0  0  0  0  0  0  0  0  0  0  0
  155.9990   48.1409  144.3590 C   0  0  0  0  0  0  0  0  0  0  0  0
  156.7007   49.2680  144.1677 N   0  0  0  0  0  0  0  0  0  0  0  0
  156.1866   47.4372  145.5000 N   0  0  0  0  0  0  0  0  0  0  0  0
  155.5024   46.2959  145.7249 C   0  0  0  0  0  0  0  0  0  0  0  0
  1  3  2  1  0  0  0
  1 32  1  0  0  0  0
  1  2  1  0  0  0  0
  1  4  1  0  0  0  0
  4  5  1  0  0  0  0
  6  5  1  1  0  0  0
  7  6  1  0  0  0  0
  8  6  1  0  0  0  0
  8 10  1  0  0  0  0
  8  9  1  6  0  0  0
 10 11  1  6  0  0  0
 12 13  1  1  0  0  0
 12  7  1  0  0  0  0
 12 10  1  0  0  0  0
 14 13  1  0  0  0  0
 15 16  1  0  0  0  0
 15 14  2  0  0  0  0
 16 23  2  0  0  0  0
 17 16  1  0  0  0  0
 17 19  1  0  0  0  0
 18 17  2  0  0  0  0
 19 20  2  0  0  0  0
 20 22  1  0  0  0  0
 20 21  1  0  0  0  0
 23 13  1  0  0  0  0
 23 22  1  0  0  0  0
 24 25  2  6  0  0  0
 24  9  1  0  0  0  0
 24 26  1  0  0  0  0
 27 28  1  0  0  0  0
 27 24  1  0  0  0  0
 29 30  1  6  0  0  0
 29 28  1  0  0  0  0
 31 32  1  1  0  0  0
 31 29  1  0  0  0  0
 33 34  1  1  0  0  0
 33 35  1  0  0  0  0
 33 31  1  0  0  0  0
 35 36  1  6  0  0  0
 35 30  1  0  0  0  0
 36 37  1  0  0  0  0
 38 37  2  0  0  0  0
 39 38  1  0  0  0  0
 40 41  2  0  0  0  0
 40 39  1  0  0  0  0
 42 40  1  0  0  0  0
 43 42  2  0  0  0  0
 43 45  1  0  0  0  0
 44 43  1  0  0  0  0
 45 46  1  0  0  0  0
 46 39  2  0  0  0  0
 46 36  1  0  0  0  0
M  END
>  <CHROM.1>
6.25083003,165.65926301,158.10100574,43.77125565,144.53251690,-1.78875251
0.85164555,-2.19392063

>  <Name>
lig.pdb

>  <RI>
0

>  <Rbt.Current_Directory>
/home/itssahil/PROJECTS/Mol_Feturizer/New_Systems/rnas/4yb0

>  <Rbt.Executable>
rbdock ($Id: //depot/dev/client3/rdock/2013.1/src/exe/rbdock.cxx#4 $)

>  <Rbt.Library>
libRbt.so (2013.1, Build901 2013/11/27)

>  <Rbt.Parameter_File>
/export/apps/rDock/src/rDock_2013.1_src/data/scripts/dock_solv.prm

>  <Rbt.Receptor>
prm/pocket_docking_7.prm

>  <SCORE>
-46.3574

>  <SCORE.INTER>
-45.9091

>  <SCORE.INTER.CONST>
1

>  <SCORE.INTER.POLAR>
0

>  <SCORE.INTER.ROT>
2

>  <SCORE.INTER.SOLV>
25.9665

>  <SCORE.INTER.VDW>
-44.1949

>  <SCORE.INTER.norm>
-0.998024

>  <SCORE.INTRA>
-0.448341

>  <SCORE.INTRA.DIHEDRAL>
0.0850338

>  <SCORE.INTRA.DIHEDRAL.0>
4.74153

>  <SCORE.INTRA.POLAR>
0

>  <SCORE.INTRA.POLAR.0>
0

>  <SCORE.INTRA.REPUL>
0

>  <SCORE.INTRA.REPUL.0>
0

>  <SCORE.INTRA.SOLV>
0.797018

>  <SCORE.INTRA.SOLV.lig_0>
-60.4375

>  <SCORE.INTRA.VDW>
-0.889367

>  <SCORE.INTRA.VDW.0>
-1.83689

>  <SCORE.INTRA.norm>
-0.00974655

>  <SCORE.RESTR>
0

>  <SCORE.RESTR.CAVITY>
0

>  <SCORE.RESTR.norm>
0

>  <SCORE.SYSTEM>
0

>  <SCORE.SYSTEM.CONST>
0

>  <SCORE.SYSTEM.DIHEDRAL>
0

>  <SCORE.SYSTEM.SOLV>
0

>  <SCORE.SYSTEM.norm>
0

>  <SCORE.heavy>
46

>  <SCORE.norm>
-1.00777

>  <RMSD>
2.205

$$$$
lig.pdb
 OpenBabel11021811523D
libRbt.so/2013.1/901 2013/11/27
 46 52  0  0  0  0  0  0  0  0999 V2000
  159.5121   41.9558  147.7057 P   0  0  2  0  0  0  0  0  0  0  0  0
  160.6427   41.3224  148.4869 O   0  0  0  0  0  0  0  0  0  0  0  0
  158.1751   41.2629  147.7665 O   0  0  0  0  0  0  0  0  0  0  0  0
  159.9083   42.1532  146.1601 O   0  0  0  0  0  0  0  0  0  0  0  0
  161.2380   41.9484  145.7006 C   0  0  0  0  0  0  0  0  0  0  0  0
  161.4149   42.5719  144.3260 C   0  0  1  0  0  0  0  0  0  0  0  0
  161.3905   41.5276  143.3632 O   0  0  0  0  0  0  0  0  0  0  0  0
  160.3359   43.5625  143.9073 C   0  0  1  0  0  0  0  0  0  0  0  0
  160.8311   44.8879  144.0277 O   0  0  0  0  0  0  0  0  0  0  0  0
  160.1375   43.2670  142.4375 C   0  0  1  0  0  0  0  0  0  0  0  0
  161.0251   44.0747  141.6617 O   0  0  0  0  0  0  0  0  0  0  0  0
  160.5692   41.8417  142.2491 C   0  0  2  0  0  0  0  0  0  0  0  0
  159.3754   40.9637  142.2778 N   0  0  0  0  0  0  0  0  0  0  0  0
  159.0527   40.1123  143.2669 C   0  0  0  0  0  0  0  0  0  0  0  0
  157.9081   39.4502  142.9724 N   0  0  0  0  0  0  0  0  0  0  0  0
  157.4776   39.8764  141.7716 C   0  0  0  0  0  0  0  0  0  0  0  0
  156.3306   39.5860  140.8794 C   0  0  0  0  0  0  0  0  0  0  0  0
  155.4690   38.7372  141.2126 O   0  0  0  0  0  0  0  0  0  0  0  0
  156.2541   40.2561  139.7168 N   0  0  0  0  0  0  0  0  0  0  0  0
  157.1823   41.1651  139.3630 C   0  0  0  0  0  0  0  0  0  0  0  0
  157.0516   41.8124  138.1835 N   0  0  0  0  0  0  0  0  0  0  0  0
  158.2523   41.4771  140.1289 N   0  0  0  0  0  0  0  0  0  0  0  0
  158.4508   40.8765  141.3217 C   0  0  0  0  0  0  0  0  0  0  0  0
  159.8865   46.2050  143.9329 P   0  0  2  0  0  0  0  0  0  0  0  0
  159.0125   46.1008  142.7067 O   0  0  0  0  0  0  0  0  0  0  0  0
  160.8044   47.3956  144.1374 O   0  0  0  0  0  0  0  0  0  0  0  0
  158.9304   46.0389  145.2243 O   0  0  0  0  0  0  0  0  0  0  0  0
  159.4063   46.4049  146.5189 C   0  0  0  0  0  0  0  0  0  0  0  0
  158.5982   45.7760  147.6582 C   0  0  1  0  0  0  0  0  0  0  0  0
  157.3301   46.4283  147.7543 O   0  0  0  0  0  0  0  0  0  0  0  0
  158.3166   44.2830  147.5044 C   0  0  1  0  0  0  0  0  0  0  0  0
  159.2797   43.4780  148.1831 O   0  0  0  0  0  0  0  0  0  0  0  0
  156.9394   44.1486  148.1268 C   0  0  1  0  0  0  0  0  0  0  0  0
  157.0369   43.9489  149.5397 O   0  0  0  0  0  0  0  0  0  0  0  0
  156.2648   45.4858  147.9025 C   0  0  2  0  0  0  0  0  0  0  0  0
  155.4863   45.4429  146.6398 N   0  0  0  0  0  0  0  0  0  0  0  0
  154.5867   44.4976  146.3026 C   0  0  0  0  0  0  0  0  0  0  0  0
  154.0279   44.7404  145.0845 N   0  0  0  0  0  0  0  0  0  0  0  0
  154.5719   45.8761  144.6191 C   0  0  0  0  0  0  0  0  0  0  0  0
  154.4449   46.6987  143.3891 C   0  0  0  0  0  0  0  0  0  0  0  0
  153.6579   46.4028  142.4644 O   0  0  0  0  0  0  0  0  0  0  0  0
  155.1921   47.8007  143.3060 N   0  0  0  0  0  0  0  0  0  0  0  0
  156.0473   48.1648  144.2740 C   0  0  0  0  0  0  0  0  0  0  0  0
  156.7596   49.2847  144.0798 N   0  0  0  0  0  0  0  0  0  0  0  0
  156.2256   47.4644  145.4184 N   0  0  0  0  0  0  0  0  0  0  0  0
  155.5306   46.3302  145.6463 C   0  0  0  0  0  0  0  0  0  0  0  0
  1  3  2  1  0  0  0
  1 32  1  0  0  0  0
  1  2  1  0  0  0  0
  1  4  1  0  0  0  0
  4  5  1  0  0  0  0
  6  5  1  1  0  0  0
  7  6  1  0  0  0  0
  8  6  1  0  0  0  0
  8 10  1  0  0  0  0
  8  9  1  6  0  0  0
 10 11  1  6  0  0  0
 12 13  1  1  0  0  0
 12  7  1  0  0  0  0
 12 10  1  0  0  0  0
 14 13  1  0  0  0  0
 15 16  1  0  0  0  0
 15 14  2  0  0  0  0
 16 23  2  0  0  0  0
 17 16  1  0  0  0  0
 17 19  1  0  0  0  0
 18 17  2  0  0  0  0
 19 20  2  0  0  0  0
 20 22  1  0  0  0  0
 20 21  1  0  0  0  0
 23 13  1  0  0  0  0
 23 22  1  0  0  0  0
 24 25  2  6  0  0  0
 24  9  1  0  0  0  0
 24 26  1  0  0  0  0
 27 28  1  0  0  0  0
 27 24  1  0  0  0  0
 29 30  1  6  0  0  0
 29 28  1  0  0  0  0
 31 32  1  1  0  0  0
 31 29  1  0  0  0  0
 33 34  1  1  0  0  0
 33 35  1  0  0  0  0
 33 31  1  0  0  0  0
 35 36  1  6  0  0  0
 35 30  1  0  0  0  0
 36 37  1  0  0  0  0
 38 37  2  0  0  0  0
 39 38  1  0  0  0  0
 40 41  2  0  0  0  0
 40 39  1  0  0  0  0
 42 40  1  0  0  0  0
 43 42  2  0  0  0  0
 43 45  1  0  0  0  0
 44 43  1  0  0  0  0
 45 46  1  0  0  0  0
 46 39  2  0  0  0  0
 46 36  1  0  0  0  0
M  END
>  <CHROM.1>
6.44000163,165.88934200,158.11594450,43.78928374,144.46637633,-1.78509579
0.85856760,-2.19735636

>  <Name>
lig.pdb

>  <RI>
0

>  <Rbt.Current_Directory>
/home/itssahil/PROJECTS/Mol_Feturizer/New_Systems/rnas/4yb0

>  <Rbt.Executable>
rbdock ($Id: //depot/dev/client3/rdock/2013.1/src/exe/rbdock.cxx#4 $)

>  <Rbt.Library>
libRbt.so (2013.1, Build901 2013/11/27)

>  <Rbt.Parameter_File>
/export/apps/rDock/src/rDock_2013.1_src/data/scripts/dock_solv.prm

>  <Rbt.Receptor>
prm/pocket_docking_5.prm

>  <SCORE>
-46.3506

>  <SCORE.INTER>
-45.8879

>  <SCORE.INTER.CONST>
1

>  <SCORE.INTER.POLAR>
0

>  <SCORE.INTER.ROT>
2

>  <SCORE.INTER.SOLV>
26.0527

>  <SCORE.INTER.VDW>
-44.2095

>  <SCORE.INTER.norm>
-0.997564

>  <SCORE.INTRA>
-0.462646

>  <SCORE.INTRA.DIHEDRAL>
0.0840884

>  <SCORE.INTRA.DIHEDRAL.0>
4.74153

>  <SCORE.INTRA.POLAR>
0

>  <SCORE.INTRA.POLAR.0>
0

>  <SCORE.INTRA.REPUL>
0

>  <SCORE.INTRA.REPUL.0>
0

>  <SCORE.INTRA.SOLV>
0.837631

>  <SCORE.INTRA.SOLV.lig_0>
-60.4375

>  <SCORE.INTRA.VDW>
-0.923506

>  <SCORE.INTRA.VDW.0>
-1.83689

>  <SCORE.INTRA.norm>
-0.0100575

>  <SCORE.RESTR>
0

>  <SCORE.RESTR.CAVITY>
0

>  <SCORE.RESTR.norm>
0

>  <SCORE.SYSTEM>
0

>  <SCORE.SYSTEM.CONST>
0

>  <SCORE.SYSTEM.DIHEDRAL>
0

>  <SCORE.SYSTEM.SOLV>
0

>  <SCORE.SYSTEM.norm>
0

>  <SCORE.heavy>
46

>  <SCORE.norm>
-1.00762

>  <RMSD>
2.206

$$$$
lig.pdb
 OpenBabel11021811523D
libRbt.so/2013.1/901 2013/11/27
 46 52  0  0  0  0  0  0  0  0999 V2000
  159.5663   42.0232  147.8095 P   0  0  2  0  0  0  0  0  0  0  0  0
  160.7279   41.4272  148.5745 O   0  0  0  0  0  0  0  0  0  0  0  0
  158.2554   41.2837  147.8837 O   0  0  0  0  0  0  0  0  0  0  0  0
  159.9366   42.2397  146.2599 O   0  0  0  0  0  0  0  0  0  0  0  0
  161.2669   42.0833  145.7837 C   0  0  0  0  0  0  0  0  0  0  0  0
  161.4051   42.7173  144.4094 C   0  0  1  0  0  0  0  0  0  0  0  0
  161.4056   41.6761  143.4431 O   0  0  0  0  0  0  0  0  0  0  0  0
  160.2870   43.6708  144.0076 C   0  0  1  0  0  0  0  0  0  0  0  0
  160.7369   45.0124  144.1272 O   0  0  0  0  0  0  0  0  0  0  0  0
  160.0813   43.3736  142.5392 C   0  0  1  0  0  0  0  0  0  0  0  0
  160.9305   44.2146  141.7559 O   0  0  0  0  0  0  0  0  0  0  0  0
  160.5602   41.9649  142.3401 C   0  0  2  0  0  0  0  0  0  0  0  0
  159.3984   41.0455  142.3798 N   0  0  0  0  0  0  0  0  0  0  0  0
  159.1093   40.1911  143.3767 C   0  0  0  0  0  0  0  0  0  0  0  0
  157.9879   39.4866  143.0913 N   0  0  0  0  0  0  0  0  0  0  0  0
  157.5387   39.8878  141.8887 C   0  0  0  0  0  0  0  0  0  0  0  0
  156.3998   39.5500  141.0028 C   0  0  0  0  0  0  0  0  0  0  0  0
  155.5699   38.6739  141.3457 O   0  0  0  0  0  0  0  0  0  0  0  0
  156.2959   40.2077  139.8353 N   0  0  0  0  0  0  0  0  0  0  0  0
  157.1902   41.1461  139.4712 C   0  0  0  0  0  0  0  0  0  0  0  0
  157.0329   41.7791  138.2872 N   0  0  0  0  0  0  0  0  0  0  0  0
  158.2509   41.5019  140.2309 N   0  0  0  0  0  0  0  0  0  0  0  0
  158.4744   40.9181  141.4277 C   0  0  0  0  0  0  0  0  0  0  0  0
  159.7456   46.2959  144.0488 P   0  0  2  0  0  0  0  0  0  0  0  0
  158.8610   46.1653  142.8328 O   0  0  0  0  0  0  0  0  0  0  0  0
  160.6237   47.5172  144.2468 O   0  0  0  0  0  0  0  0  0  0  0  0
  158.8118   46.0919  145.3510 O   0  0  0  0  0  0  0  0  0  0  0  0
  159.2903   46.4699  146.6411 C   0  0  0  0  0  0  0  0  0  0  0  0
  158.5186   45.8092  147.7877 C   0  0  1  0  0  0  0  0  0  0  0  0
  157.2298   46.4163  147.9016 O   0  0  0  0  0  0  0  0  0  0  0  0
  158.2877   44.3077  147.6316 C   0  0  1  0  0  0  0  0  0  0  0  0
  159.2866   43.5347  148.2955 O   0  0  0  0  0  0  0  0  0  0  0  0
  156.9237   44.1229  148.2700 C   0  0  1  0  0  0  0  0  0  0  0  0
  157.0454   43.9219  149.6809 O   0  0  0  0  0  0  0  0  0  0  0  0
  156.2001   45.4364  148.0589 C   0  0  2  0  0  0  0  0  0  0  0  0
  155.4082   45.3706  146.8056 N   0  0  0  0  0  0  0  0  0  0  0  0
  154.4619   44.4541  146.5208 C   0  0  0  0  0  0  0  0  0  0  0  0
  153.9033   44.6650  145.2966 N   0  0  0  0  0  0  0  0  0  0  0  0
  154.4956   45.7501  144.7733 C   0  0  0  0  0  0  0  0  0  0  0  0
  154.3957   46.5184  143.5062 C   0  0  0  0  0  0  0  0  0  0  0  0
  153.5867   46.2166  142.6026 O   0  0  0  0  0  0  0  0  0  0  0  0
  155.1931   47.5785  143.3648 N   0  0  0  0  0  0  0  0  0  0  0  0
  156.0737   47.9472  144.3079 C   0  0  0  0  0  0  0  0  0  0  0  0
  156.8361   49.0215  144.0549 N   0  0  0  0  0  0  0  0  0  0  0  0
  156.2300   47.2943  145.4833 N   0  0  0  0  0  0  0  0  0  0  0  0
  155.4845   46.2065  145.7704 C   0  0  0  0  0  0  0  0  0  0  0  0
  1  3  2  1  0  0  0
  1 32  1  0  0  0  0
  1  2  1  0  0  0  0
  1  4  1  0  0  0  0
  4  5  1  0  0  0  0
  6  5  1  1  0  0  0
  7  6  1  0  0  0  0
  8  6  1  0  0  0  0
  8 10  1  0  0  0  0
  8  9  1  6  0  0  0
 10 11  1  6  0  0  0
 12 13  1  1  0  0  0
 12  7  1  0  0  0  0
 12 10  1  0  0  0  0
 14 13  1  0  0  0  0
 15 16  1  0  0  0  0
 15 14  2  0  0  0  0
 16 23  2  0  0  0  0
 17 16  1  0  0  0  0
 17 19  1  0  0  0  0
 18 17  2  0  0  0  0
 19 20  2  0  0  0  0
 20 22  1  0  0  0  0
 20 21  1  0  0  0  0
 23 13  1  0  0  0  0
 23 22  1  0  0  0  0
 24 25  2  6  0  0  0
 24  9  1  0  0  0  0
 24 26  1  0  0  0  0
 27 28  1  0  0  0  0
 27 24  1  0  0  0  0
 29 30  1  6  0  0  0
 29 28  1  0  0  0  0
 31 32  1  1  0  0  0
 31 29  1  0  0  0  0
 33 34  1  1  0  0  0
 33 35  1  0  0  0  0
 33 31  1  0  0  0  0
 35 36  1  6  0  0  0
 35 30  1  0  0  0  0
 36 37  1  0  0  0  0
 38 37  2  0  0  0  0
 39 38  1  0  0  0  0
 40 41  2  0  0  0  0
 40 39  1  0  0  0  0
 42 40  1  0  0  0  0
 43 42  2  0  0  0  0
 43 45  1  0  0  0  0
 44 43  1  0  0  0  0
 45 46  1  0  0  0  0
 46 39  2  0  0  0  0
 46 36  1  0  0  0  0
M  END
>  <CHROM.1>
7.26732579,171.45782781,158.09185561,43.79833595,144.57930761,-1.76132803
0.83839408,-2.17988715

>  <Name>
lig.pdb

>  <RI>
0

>  <Rbt.Current_Directory>
/home/itssahil/PROJECTS/Mol_Feturizer/New_Systems/rnas/4yb0

>  <Rbt.Executable>
rbdock ($Id: //depot/dev/client3/rdock/2013.1/src/exe/rbdock.cxx#4 $)

>  <Rbt.Library>
libRbt.so (2013.1, Build901 2013/11/27)

>  <Rbt.Parameter_File>
/export/apps/rDock/src/rDock_2013.1_src/data/scripts/dock_solv.prm

>  <Rbt.Receptor>
prm/pocket_docking_6.prm

>  <SCORE>
-46.1585

>  <SCORE.INTER>
-45.7866

>  <SCORE.INTER.CONST>
1

>  <SCORE.INTER.POLAR>
0

>  <SCORE.INTER.ROT>
2

>  <SCORE.INTER.SOLV>
25.2361

>  <SCORE.INTER.VDW>
-43.8697

>  <SCORE.INTER.norm>
-0.99536

>  <SCORE.INTRA>
-0.371953

>  <SCORE.INTRA.DIHEDRAL>
0.0680191

>  <SCORE.INTRA.DIHEDRAL.0>
4.74153

>  <SCORE.INTRA.POLAR>
0

>  <SCORE.INTRA.POLAR.0>
0

>  <SCORE.INTRA.REPUL>
0

>  <SCORE.INTRA.REPUL.0>
0

>  <SCORE.INTRA.SOLV>
1.83563

>  <SCORE.INTRA.SOLV.lig_0>
-60.4375

>  <SCORE.INTRA.VDW>
-1.32378

>  <SCORE.INTRA.VDW.0>
-1.83689

>  <SCORE.INTRA.norm>
-0.00808593

>  <SCORE.RESTR>
0

>  <SCORE.RESTR.CAVITY>
0

>  <SCORE.RESTR.norm>
0

>  <SCORE.SYSTEM>
0

>  <SCORE.SYSTEM.CONST>
0

>  <SCORE.SYSTEM.DIHEDRAL>
0

>  <SCORE.SYSTEM.SOLV>
0

>  <SCORE.SYSTEM.norm>
0

>  <SCORE.heavy>
46

>  <SCORE.norm>
-1.00345

>  <RMSD>
2.206

$$$$
lig.pdb
 OpenBabel11021811523D
libRbt.so/2013.1/901 2013/11/27
 46 52  0  0  0  0  0  0  0  0999 V2000
  159.5069   41.9533  147.7529 P   0  0  2  0  0  0  0  0  0  0  0  0
  160.6375   41.3256  148.5386 O   0  0  0  0  0  0  0  0  0  0  0  0
  158.1704   41.2599  147.8173 O   0  0  0  0  0  0  0  0  0  0  0  0
  159.9038   42.1414  146.2063 O   0  0  0  0  0  0  0  0  0  0  0  0
  161.2339   41.9347  145.7488 C   0  0  0  0  0  0  0  0  0  0  0  0
  161.4111   42.5497  144.3704 C   0  0  1  0  0  0  0  0  0  0  0  0
  161.3880   41.4994  143.4142 O   0  0  0  0  0  0  0  0  0  0  0  0
  160.3316   43.5368  143.9450 C   0  0  1  0  0  0  0  0  0  0  0  0
  160.8258   44.8633  144.0574 O   0  0  0  0  0  0  0  0  0  0  0  0
  160.1343   43.2321  142.4769 C   0  0  1  0  0  0  0  0  0  0  0  0
  161.0217   44.0356  141.6966 O   0  0  0  0  0  0  0  0  0  0  0  0
  160.5671   41.8059  142.2977 C   0  0  2  0  0  0  0  0  0  0  0  0
  159.3739   40.9273  142.3312 N   0  0  0  0  0  0  0  0  0  0  0  0
  159.0588   40.0714  143.3190 C   0  0  0  0  0  0  0  0  0  0  0  0
  157.9123   39.4101  143.0298 N   0  0  0  0  0  0  0  0  0  0  0  0
  157.4730   39.8413  141.8341 C   0  0  0  0  0  0  0  0  0  0  0  0
  156.3197   39.5543  140.9489 C   0  0  0  0  0  0  0  0  0  0  0  0
  155.4608   38.7037  141.2847 O   0  0  0  0  0  0  0  0  0  0  0  0
  156.2344   40.2294  139.7898 N   0  0  0  0  0  0  0  0  0  0  0  0
  157.1597   41.1403  139.4333 C   0  0  0  0  0  0  0  0  0  0  0  0
  157.0202   41.7927  138.2576 N   0  0  0  0  0  0  0  0  0  0  0  0
  158.2350   41.4495  140.1927 N   0  0  0  0  0  0  0  0  0  0  0  0
  158.4425   40.8438  141.3815 C   0  0  0  0  0  0  0  0  0  0  0  0
  159.8804   46.1792  143.9538 P   0  0  2  0  0  0  0  0  0  0  0  0
  159.0071   46.0667  142.7279 O   0  0  0  0  0  0  0  0  0  0  0  0
  160.7973   47.3716  144.1514 O   0  0  0  0  0  0  0  0  0  0  0  0
  158.9237   46.0205  145.2457 O   0  0  0  0  0  0  0  0  0  0  0  0
  159.3986   46.3948  146.5383 C   0  0  0  0  0  0  0  0  0  0  0  0
  158.5903   45.7725  147.6811 C   0  0  1  0  0  0  0  0  0  0  0  0
  157.3217   46.4245  147.7724 O   0  0  0  0  0  0  0  0  0  0  0  0
  158.3099   44.2784  147.5365 C   0  0  1  0  0  0  0  0  0  0  0  0
  159.2732   43.4783  148.2207 O   0  0  0  0  0  0  0  0  0  0  0  0
  156.9324   44.1468  148.1589 C   0  0  1  0  0  0  0  0  0  0  0  0
  157.0293   43.9561  149.5731 O   0  0  0  0  0  0  0  0  0  0  0  0
  156.2570   45.4822  147.9258 C   0  0  2  0  0  0  0  0  0  0  0  0
  155.4792   45.4308  146.6631 N   0  0  0  0  0  0  0  0  0  0  0  0
  154.5813   44.4822  146.3308 C   0  0  0  0  0  0  0  0  0  0  0  0
  154.0227   44.7172  145.1110 N   0  0  0  0  0  0  0  0  0  0  0  0
  154.5652   45.8511  144.6394 C   0  0  0  0  0  0  0  0  0  0  0  0
  154.4376   46.6664  143.4047 C   0  0  0  0  0  0  0  0  0  0  0  0
  153.6515   46.3640  142.4812 O   0  0  0  0  0  0  0  0  0  0  0  0
  155.1832   47.7691  143.3156 N   0  0  0  0  0  0  0  0  0  0  0  0
  156.0372   48.1401  144.2820 C   0  0  0  0  0  0  0  0  0  0  0  0
  156.7479   49.2599  144.0817 N   0  0  0  0  0  0  0  0  0  0  0  0
  156.2160   47.4464  145.4305 N   0  0  0  0  0  0  0  0  0  0  0  0
  155.5226   46.3125  145.6646 C   0  0  0  0  0  0  0  0  0  0  0  0
  1  3  2  1  0  0  0
  1 32  1  0  0  0  0
  1  2  1  0  0  0  0
  1  4  1  0  0  0  0
  4  5  1  0  0  0  0
  6  5  1  1  0  0  0
  7  6  1  0  0  0  0
  8  6  1  0  0  0  0
  8 10  1  0  0  0  0
  8  9  1  6  0  0  0
 10 11  1  6  0  0  0
 12 13  1  1  0  0  0
 12  7  1  0  0  0  0
 12 10  1  0  0  0  0
 14 13  1  0  0  0  0
 15 16  1  0  0  0  0
 15 14  2  0  0  0  0
 16 23  2  0  0  0  0
 17 16  1  0  0  0  0
 17 19  1  0  0  0  0
 18 17  2  0  0  0  0
 19 20  2  0  0  0  0
 20 22  1  0  0  0  0
 20 21  1  0  0  0  0
 23 13  1  0  0  0  0
 23 22  1  0  0  0  0
 24 25  2  6  0  0  0
 24  9  1  0  0  0  0
 24 26  1  0  0  0  0
 27 28  1  0  0  0  0
 27 24  1  0  0  0  0
 29 30  1  6  0  0  0
 29 28  1  0  0  0  0
 31 32  1  1  0  0  0
 31 29  1  0  0  0  0
 33 34  1  1  0  0  0
 33 35  1  0  0  0  0
 33 31  1  0  0  0  0
 35 36  1  6  0  0  0
 35 30  1  0  0  0  0
 36 37  1  0  0  0  0
 38 37  2  0  0  0  0
 39 38  1  0  0  0  0
 40 41  2  0  0  0  0
 40 39  1  0  0  0  0
 42 40  1  0  0  0  0
 43 42  2  0  0  0  0
 43 45  1  0  0  0  0
 44 43  1  0  0  0  0
 45 46  1  0  0  0  0
 46 39  2  0  0  0  0
 46 36  1  0  0  0  0
M  END
>  <CHROM.1>
5.68729616,165.83253655,158.10884910,43.76873474,144.50337442,-1.78628404
0.85710735,-2.20357865

>  <Name>
lig.pdb

>  <RI>
0

>  <Rbt.Current_Directory>
/home/itssahil/PROJECTS/Mol_Feturizer/New_Systems/rnas/4yb0

>  <Rbt.Executable>
rbdock ($Id: //depot/dev/client3/rdock/2013.1/src/exe/rbdock.cxx#4 $)

>  <Rbt.Library>
libRbt.so (2013.1, Build901 2013/11/27)

>  <Rbt.Parameter_File>
/export/apps/rDock/src/rDock_2013.1_src/data/scripts/dock_solv.prm

>  <Rbt.Receptor>
prm/pocket_docking_7.prm

>  <SCORE>
-46.2977

>  <SCORE.INTER>
-45.8421

>  <SCORE.INTER.CONST>
1

>  <SCORE.INTER.POLAR>
0

>  <SCORE.INTER.ROT>
2

>  <SCORE.INTER.SOLV>
25.9613

>  <SCORE.INTER.VDW>
-44.1485

>  <SCORE.INTER.norm>
-0.996568

>  <SCORE.INTRA>
-0.455573

>  <SCORE.INTRA.DIHEDRAL>
0.0859205

>  <SCORE.INTRA.DIHEDRAL.0>
4.74153

>  <SCORE.INTRA.POLAR>
0

>  <SCORE.INTRA.POLAR.0>
0

>  <SCORE.INTRA.REPUL>
0

>  <SCORE.INTRA.REPUL.0>
0

>  <SCORE.INTRA.SOLV>
0.830664

>  <SCORE.INTRA.SOLV.lig_0>
-60.4375

>  <SCORE.INTRA.VDW>
-0.913865

>  <SCORE.INTRA.VDW.0>
-1.83689

>  <SCORE.INTRA.norm>
-0.00990376

>  <SCORE.RESTR>
0

>  <SCORE.RESTR.CAVITY>
0

>  <SCORE.RESTR.norm>
0

>  <SCORE.SYSTEM>
0

>  <SCORE.SYSTEM.CONST>
0

>  <SCORE.SYSTEM.DIHEDRAL>
0

>  <SCORE.SYSTEM.SOLV>
0

>  <SCORE.SYSTEM.norm>
0

>  <SCORE.heavy>
46

>  <SCORE.norm>
-1.00647

>  <RMSD>
2.206

$$$$
lig.pdb
 OpenBabel11021811523D
libRbt.so/2013.1/901 2013/11/27
 46 52  0  0  0  0  0  0  0  0999 V2000
  160.1137   45.8711  143.6824 P   0  0  2  0  0  0  0  0  0  0  0  0
  160.8309   47.1852  143.9025 O   0  0  0  0  0  0  0  0  0  0  0  0
  159.2572   45.7653  142.4470 O   0  0  0  0  0  0  0  0  0  0  0  0
  159.2145   45.4758  144.9553 O   0  0  0  0  0  0  0  0  0  0  0  0
  159.3020   46.1926  146.1799 C   0  0  0  0  0  0  0  0  0  0  0  0
  158.6637   45.3880  147.3001 C   0  0  1  0  0  0  0  0  0  0  0  0
  157.3874   45.9491  147.5722 O   0  0  0  0  0  0  0  0  0  0  0  0
  158.4254   43.9135  147.0000 C   0  0  1  0  0  0  0  0  0  0  0  0
  159.4053   43.1268  147.6613 O   0  0  0  0  0  0  0  0  0  0  0  0
  157.0861   43.6347  147.6444 C   0  0  1  0  0  0  0  0  0  0  0  0
  157.2822   43.2146  148.9961 O   0  0  0  0  0  0  0  0  0  0  0  0
  156.3792   44.9579  147.6981 C   0  0  2  0  0  0  0  0  0  0  0  0
  155.4605   45.0664  146.5401 N   0  0  0  0  0  0  0  0  0  0  0  0
  154.2480   44.4935  146.4456 C   0  0  0  0  0  0  0  0  0  0  0  0
  153.6771   44.7788  145.2507 N   0  0  0  0  0  0  0  0  0  0  0  0
  154.5312   45.5499  144.5545 C   0  0  0  0  0  0  0  0  0  0  0  0
  154.5455   46.2018  143.2238 C   0  0  0  0  0  0  0  0  0  0  0  0
  153.5695   46.0736  142.4460 O   0  0  0  0  0  0  0  0  0  0  0  0
  155.6300   46.9216  142.8888 N   0  0  0  0  0  0  0  0  0  0  0  0
  156.6757   47.0548  143.7265 C   0  0  0  0  0  0  0  0  0  0  0  0
  157.7382   47.7950  143.3384 N   0  0  0  0  0  0  0  0  0  0  0  0
  156.7275   46.4872  144.9529 N   0  0  0  0  0  0  0  0  0  0  0  0
  155.7044   45.7363  145.4138 C   0  0  0  0  0  0  0  0  0  0  0  0
  159.6348   41.5483  147.3586 P   0  0  2  0  0  0  0  0  0  0  0  0
  158.3039   40.8374  147.3983 O   0  0  0  0  0  0  0  0  0  0  0  0
  160.7794   41.1112  148.2535 O   0  0  0  0  0  0  0  0  0  0  0  0
  160.1320   41.5593  145.8217 O   0  0  0  0  0  0  0  0  0  0  0  0
  161.4888   41.8735  145.5106 C   0  0  0  0  0  0  0  0  0  0  0  0
  161.6913   42.2924  144.0511 C   0  0  1  0  0  0  0  0  0  0  0  0
  161.5879   41.1413  143.2103 O   0  0  0  0  0  0  0  0  0  0  0  0
  160.6860   43.3150  143.5261 C   0  0  1  0  0  0  0  0  0  0  0  0
  161.1691   44.6533  143.6339 O   0  0  0  0  0  0  0  0  0  0  0  0
  160.5255   42.8950  142.0769 C   0  0  1  0  0  0  0  0  0  0  0  0
  161.5241   43.5075  141.2562 O   0  0  0  0  0  0  0  0  0  0  0  0
  160.7776   41.4018  142.0611 C   0  0  2  0  0  0  0  0  0  0  0  0
  159.4899   40.6798  142.2113 N   0  0  0  0  0  0  0  0  0  0  0  0
  159.1260   39.9338  143.2732 C   0  0  0  0  0  0  0  0  0  0  0  0
  157.8784   39.4089  143.1210 N   0  0  0  0  0  0  0  0  0  0  0  0
  157.4148   39.8289  141.9332 C   0  0  0  0  0  0  0  0  0  0  0  0
  156.1734   39.6391  141.1404 C   0  0  0  0  0  0  0  0  0  0  0  0
  155.2117   38.9574  141.5557 O   0  0  0  0  0  0  0  0  0  0  0  0
  156.0999   40.2496  139.9565 N   0  0  0  0  0  0  0  0  0  0  0  0
  157.1023   40.9970  139.4690 C   0  0  0  0  0  0  0  0  0  0  0  0
  156.9269   41.5535  138.2613 N   0  0  0  0  0  0  0  0  0  0  0  0
  158.2663   41.2098  140.1264 N   0  0  0  0  0  0  0  0  0  0  0  0
  158.4806   40.6619  141.3410 C   0  0  0  0  0  0  0  0  0  0  0  0
  1  3  2  6  0  0  0
  1 32  1  0  0  0  0
  1  2  1  0  0  0  0
  1  4  1  0  0  0  0
  4  5  1  0  0  0  0
  6  5  1  6  0  0  0
  7  6  1  0  0  0  0
  8  6  1  0  0  0  0
  8 10  1  0  0  0  0
  8  9  1  1  0  0  0
 10 11  1  1  0  0  0
 12 13  1  6  0  0  0
 12  7  1  0  0  0  0
 12 10  1  0  0  0  0
 14 13  1  0  0  0  0
 15 16  1  0  0  0  0
 15 14  2  0  0  0  0
 16 23  2  0  0  0  0
 17 16  1  0  0  0  0
 17 19  1  0  0  0  0
 18 17  2  0  0  0  0
 19 20  2  0  0  0  0
 20 22  1  0  0  0  0
 20 21  1  0  0  0  0
 23 13  1  0  0  0  0
 23 22  1  0  0  0  0
 24 25  2  1  0  0  0
 24  9  1  0  0  0  0
 24 26  1  0  0  0  0
 27 28  1  0  0  0  0
 27 24  1  0  0  0  0
 29 30  1  6  0  0  0
 29 28  1  0  0  0  0
 31 32  1  6  0  0  0
 31 29  1  0  0  0  0
 33 34  1  6  0  0  0
 33 35  1  0  0  0  0
 33 31  1  0  0  0  0
 35 36  1  1  0  0  0
 35 30  1  0  0  0  0
 36 37  1  0  0  0  0
 38 37  2  0  0  0  0
 39 38  1  0  0  0  0
 40 41  2  0  0  0  0
 40 39  1  0  0  0  0
 42 40  1  0  0  0  0
 43 42  2  0  0  0  0
 43 45  1  0  0  0  0
 44 43  1  0  0  0  0
 45 46  1  0  0  0  0
 46 39  2  0  0  0  0
 46 36  1  0  0  0  0
M  END
>  <CHROM.1>
-165.54113388,1.83325317,158.25086356,43.41895838,144.26221528,-1.80313714
0.70194527,-2.17371304

>  <Name>
lig.pdb

>  <RI>
0

>  <Rbt.Current_Directory>
/home/itssahil/PROJECTS/Mol_Feturizer/New_Systems/rnas/4yb0

>  <Rbt.Executable>
rbdock ($Id: //depot/dev/client3/rdock/2013.1/src/exe/rbdock.cxx#4 $)

>  <Rbt.Library>
libRbt.so (2013.1, Build901 2013/11/27)

>  <Rbt.Parameter_File>
/export/apps/rDock/src/rDock_2013.1_src/data/scripts/dock_solv.prm

>  <Rbt.Receptor>
prm/pocket_docking_3.prm

>  <SCORE>
-47.1479

>  <SCORE.INTER>
-47.6613

>  <SCORE.INTER.CONST>
1

>  <SCORE.INTER.POLAR>
0

>  <SCORE.INTER.ROT>
2

>  <SCORE.INTER.SOLV>
27.2388

>  <SCORE.INTER.VDW>
-45.7871

>  <SCORE.INTER.norm>
-1.03611

>  <SCORE.INTRA>
0.508785

>  <SCORE.INTRA.DIHEDRAL>
0.0947863

>  <SCORE.INTRA.DIHEDRAL.0>
4.74153

>  <SCORE.INTRA.POLAR>
0

>  <SCORE.INTRA.POLAR.0>
0

>  <SCORE.INTRA.REPUL>
0

>  <SCORE.INTRA.REPUL.0>
0

>  <SCORE.INTRA.SOLV>
3.7817

>  <SCORE.INTRA.SOLV.lig_0>
-60.4375

>  <SCORE.INTRA.VDW>
-1.42946

>  <SCORE.INTRA.VDW.0>
-1.83689

>  <SCORE.INTRA.norm>
0.0110605

>  <SCORE.RESTR>
0.00456245

>  <SCORE.RESTR.CAVITY>
0.00456245

>  <SCORE.RESTR.norm>
9.91836e-05

>  <SCORE.SYSTEM>
0

>  <SCORE.SYSTEM.CONST>
0

>  <SCORE.SYSTEM.DIHEDRAL>
0

>  <SCORE.SYSTEM.SOLV>
0

>  <SCORE.SYSTEM.norm>
0

>  <SCORE.heavy>
46

>  <SCORE.norm>
-1.02495

>  <RMSD>
2.208

$$$$
lig.pdb
 OpenBabel11021811523D
libRbt.so/2013.1/901 2013/11/27
 46 52  0  0  0  0  0  0  0  0999 V2000
  159.5409   41.9498  147.7755 P   0  0  2  0  0  0  0  0  0  0  0  0
  160.6942   41.3302  148.5342 O   0  0  0  0  0  0  0  0  0  0  0  0
  158.2192   41.2293  147.8451 O   0  0  0  0  0  0  0  0  0  0  0  0
  159.9128   42.1737  146.2274 O   0  0  0  0  0  0  0  0  0  0  0  0
  161.2402   42.0015  145.7484 C   0  0  0  0  0  0  0  0  0  0  0  0
  161.3864   42.6449  144.3793 C   0  0  1  0  0  0  0  0  0  0  0  0
  161.3704   41.6119  143.4043 O   0  0  0  0  0  0  0  0  0  0  0  0
  160.2822   43.6182  143.9867 C   0  0  1  0  0  0  0  0  0  0  0  0
  160.7522   44.9519  144.1170 O   0  0  0  0  0  0  0  0  0  0  0  0
  160.0706   43.3364  142.5161 C   0  0  1  0  0  0  0  0  0  0  0  0
  160.9314   44.1712  141.7389 O   0  0  0  0  0  0  0  0  0  0  0  0
  160.5283   41.9225  142.3047 C   0  0  2  0  0  0  0  0  0  0  0  0
  159.3530   41.0202  142.3381 N   0  0  0  0  0  0  0  0  0  0  0  0
  159.0464   40.1695  143.3330 C   0  0  0  0  0  0  0  0  0  0  0  0
  157.9162   39.4817  143.0416 N   0  0  0  0  0  0  0  0  0  0  0  0
  157.4790   39.8900  141.8371 C   0  0  0  0  0  0  0  0  0  0  0  0
  156.3398   39.5694  140.9452 C   0  0  0  0  0  0  0  0  0  0  0  0
  155.4954   38.7054  141.2835 O   0  0  0  0  0  0  0  0  0  0  0  0
  156.2513   40.2292  139.7776 N   0  0  0  0  0  0  0  0  0  0  0  0
  157.1611   41.1545  139.4185 C   0  0  0  0  0  0  0  0  0  0  0  0
  157.0190   41.7904  138.2341 N   0  0  0  0  0  0  0  0  0  0  0  0
  158.2231   41.4944  140.1837 N   0  0  0  0  0  0  0  0  0  0  0  0
  158.4320   40.9068  141.3813 C   0  0  0  0  0  0  0  0  0  0  0  0
  159.7801   46.2506  144.0504 P   0  0  2  0  0  0  0  0  0  0  0  0
  158.8923   46.1434  142.8344 O   0  0  0  0  0  0  0  0  0  0  0  0
  160.6764   47.4570  144.2576 O   0  0  0  0  0  0  0  0  0  0  0  0
  158.8446   46.0497  145.3519 O   0  0  0  0  0  0  0  0  0  0  0  0
  159.3300   46.4098  146.6446 C   0  0  0  0  0  0  0  0  0  0  0  0
  158.5497   45.7510  147.7865 C   0  0  1  0  0  0  0  0  0  0  0  0
  157.2701   46.3763  147.9069 O   0  0  0  0  0  0  0  0  0  0  0  0
  158.2963   44.2546  147.6181 C   0  0  1  0  0  0  0  0  0  0  0  0
  159.2843   43.4613  148.2745 O   0  0  0  0  0  0  0  0  0  0  0  0
  156.9304   44.0848  148.2565 C   0  0  1  0  0  0  0  0  0  0  0  0
  157.0504   43.8702  149.6655 O   0  0  0  0  0  0  0  0  0  0  0  0
  156.2261   45.4106  148.0572 C   0  0  2  0  0  0  0  0  0  0  0  0
  155.4321   45.3670  146.8043 N   0  0  0  0  0  0  0  0  0  0  0  0
  154.4964   44.4465  146.4982 C   0  0  0  0  0  0  0  0  0  0  0  0
  153.9323   44.6817  145.2809 N   0  0  0  0  0  0  0  0  0  0  0  0
  154.5100   45.7871  144.7843 C   0  0  0  0  0  0  0  0  0  0  0  0
  154.3976   46.5862  143.5375 C   0  0  0  0  0  0  0  0  0  0  0  0
  153.5902   46.2976  142.6281 O   0  0  0  0  0  0  0  0  0  0  0  0
  155.1817   47.6592  143.4215 N   0  0  0  0  0  0  0  0  0  0  0  0
  156.0600   48.0145  144.3718 C   0  0  0  0  0  0  0  0  0  0  0  0
  156.8086   49.1042  144.1447 N   0  0  0  0  0  0  0  0  0  0  0  0
  156.2271   47.3338  145.5298 N   0  0  0  0  0  0  0  0  0  0  0  0
  155.4957   46.2300  145.7907 C   0  0  0  0  0  0  0  0  0  0  0  0
  1  3  2  1  0  0  0
  1 32  1  0  0  0  0
  1  2  1  0  0  0  0
  1  4  1  0  0  0  0
  4  5  1  0  0  0  0
  6  5  1  1  0  0  0
  7  6  1  0  0  0  0
  8  6  1  0  0  0  0
  8 10  1  0  0  0  0
  8  9  1  6  0  0  0
 10 11  1  6  0  0  0
 12 13  1  1  0  0  0
 12  7  1  0  0  0  0
 12 10  1  0  0  0  0
 14 13  1  0  0  0  0
 15 16  1  0  0  0  0
 15 14  2  0  0  0  0
 16 23  2  0  0  0  0
 17 16  1  0  0  0  0
 17 19  1  0  0  0  0
 18 17  2  0  0  0  0
 19 20  2  0  0  0  0
 20 22  1  0  0  0  0
 20 21  1  0  0  0  0
 23 13  1  0  0  0  0
 23 22  1  0  0  0  0
 24 25  2  6  0  0  0
 24  9  1  0  0  0  0
 24 26  1  0  0  0  0
 27 28  1  0  0  0  0
 27 24  1  0  0  0  0
 29 30  1  6  0  0  0
 29 28  1  0  0  0  0
 31 32  1  1  0  0  0
 31 29  1  0  0  0  0
 33 34  1  1  0  0  0
 33 35  1  0  0  0  0
 33 31  1  0  0  0  0
 35 36  1  6  0  0  0
 35 30  1  0  0  0  0
 36 37  1  0  0  0  0
 38 37  2  0  0  0  0
 39 38  1  0  0  0  0
 40 41  2  0  0  0  0
 40 39  1  0  0  0  0
 42 40  1  0  0  0  0
 43 42  2  0  0  0  0
 43 45  1  0  0  0  0
 44 43  1  0  0  0  0
 45 46  1  0  0  0  0
 46 39  2  0  0  0  0
 46 36  1  0  0  0  0
M  END
>  <CHROM.1>
7.83497811,169.61490244,158.08446326,43.77708029,144.56483312,-1.76132761
0.84657372,-2.18182693

>  <Name>
lig.pdb

>  <RI>
0

>  <Rbt.Current_Directory>
/home/itssahil/PROJECTS/Mol_Feturizer/New_Systems/rnas/4yb0

>  <Rbt.Executable>
rbdock ($Id: //depot/dev/client3/rdock/2013.1/src/exe/rbdock.cxx#4 $)

>  <Rbt.Library>
libRbt.so (2013.1, Build901 2013/11/27)

>  <Rbt.Parameter_File>
/export/apps/rDock/src/rDock_2013.1_src/data/scripts/dock_solv.prm

>  <Rbt.Receptor>
prm/pocket_docking_6.prm

>  <SCORE>
-46.3231

>  <SCORE.INTER>
-45.927

>  <SCORE.INTER.CONST>
1

>  <SCORE.INTER.POLAR>
0

>  <SCORE.INTER.ROT>
2

>  <SCORE.INTER.SOLV>
25.5905

>  <SCORE.INTER.VDW>
-44.0815

>  <SCORE.INTER.norm>
-0.998412

>  <SCORE.INTRA>
-0.396139

>  <SCORE.INTRA.DIHEDRAL>
0.0718015

>  <SCORE.INTRA.DIHEDRAL.0>
4.74153

>  <SCORE.INTRA.POLAR>
0

>  <SCORE.INTRA.POLAR.0>
0

>  <SCORE.INTRA.REPUL>
0

>  <SCORE.INTRA.REPUL.0>
0

>  <SCORE.INTRA.SOLV>
1.49947

>  <SCORE.INTRA.SOLV.lig_0>
-60.4375

>  <SCORE.INTRA.VDW>
-1.18178

>  <SCORE.INTRA.VDW.0>
-1.83689

>  <SCORE.INTRA.norm>
-0.00861172

>  <SCORE.RESTR>
0

>  <SCORE.RESTR.CAVITY>
0

>  <SCORE.RESTR.norm>
0

>  <SCORE.SYSTEM>
0

>  <SCORE.SYSTEM.CONST>
0

>  <SCORE.SYSTEM.DIHEDRAL>
0

>  <SCORE.SYSTEM.SOLV>
0

>  <SCORE.SYSTEM.norm>
0

>  <SCORE.heavy>
46

>  <SCORE.norm>
-1.00702

>  <RMSD>
2.211

$$$$
lig.pdb
 OpenBabel11021811523D
libRbt.so/2013.1/901 2013/11/27
 46 52  0  0  0  0  0  0  0  0999 V2000
  159.5447   41.9459  147.7776 P   0  0  2  0  0  0  0  0  0  0  0  0
  160.6999   41.3266  148.5337 O   0  0  0  0  0  0  0  0  0  0  0  0
  158.2240   41.2235  147.8477 O   0  0  0  0  0  0  0  0  0  0  0  0
  159.9143   42.1729  146.2294 O   0  0  0  0  0  0  0  0  0  0  0  0
  161.2413   42.0032  145.7483 C   0  0  0  0  0  0  0  0  0  0  0  0
  161.3849   42.6490  144.3801 C   0  0  1  0  0  0  0  0  0  0  0  0
  161.3690   41.6177  143.4034 O   0  0  0  0  0  0  0  0  0  0  0  0
  160.2789   43.6216  143.9905 C   0  0  1  0  0  0  0  0  0  0  0  0
  160.7472   44.9557  144.1224 O   0  0  0  0  0  0  0  0  0  0  0  0
  160.0657   43.3419  142.5197 C   0  0  1  0  0  0  0  0  0  0  0  0
  160.9244   44.1791  141.7428 O   0  0  0  0  0  0  0  0  0  0  0  0
  160.5251   41.9289  142.3054 C   0  0  2  0  0  0  0  0  0  0  0  0
  159.3509   41.0250  142.3388 N   0  0  0  0  0  0  0  0  0  0  0  0
  159.0459   40.1735  143.3335 C   0  0  0  0  0  0  0  0  0  0  0  0
  157.9166   39.4843  143.0422 N   0  0  0  0  0  0  0  0  0  0  0  0
  157.4783   39.8926  141.8380 C   0  0  0  0  0  0  0  0  0  0  0  0
  156.3392   39.5708  140.9465 C   0  0  0  0  0  0  0  0  0  0  0  0
  155.4961   38.7054  141.2846 O   0  0  0  0  0  0  0  0  0  0  0  0
  156.2493   40.2310  139.7792 N   0  0  0  0  0  0  0  0  0  0  0  0
  157.1577   41.1578  139.4202 C   0  0  0  0  0  0  0  0  0  0  0  0
  157.0143   41.7940  138.2362 N   0  0  0  0  0  0  0  0  0  0  0  0
  158.2195   41.4987  140.1851 N   0  0  0  0  0  0  0  0  0  0  0  0
  158.4298   40.9108  141.3823 C   0  0  0  0  0  0  0  0  0  0  0  0
  159.7733   46.2532  144.0592 P   0  0  2  0  0  0  0  0  0  0  0  0
  158.8841   46.1468  142.8442 O   0  0  0  0  0  0  0  0  0  0  0  0
  160.6683   47.4605  144.2673 O   0  0  0  0  0  0  0  0  0  0  0  0
  158.8398   46.0489  145.3616 O   0  0  0  0  0  0  0  0  0  0  0  0
  159.3263   46.4074  146.6543 C   0  0  0  0  0  0  0  0  0  0  0  0
  158.5485   45.7458  147.7962 C   0  0  1  0  0  0  0  0  0  0  0  0
  157.2682   46.3691  147.9192 O   0  0  0  0  0  0  0  0  0  0  0  0
  158.2968   44.2492  147.6256 C   0  0  1  0  0  0  0  0  0  0  0  0
  159.2867   43.4562  148.2793 O   0  0  0  0  0  0  0  0  0  0  0  0
  156.9320   44.0765  148.2655 C   0  0  1  0  0  0  0  0  0  0  0  0
  157.0541   43.8598  149.6740 O   0  0  0  0  0  0  0  0  0  0  0  0
  156.2257   45.4018  148.0693 C   0  0  2  0  0  0  0  0  0  0  0  0
  155.4301   45.3592  146.8174 N   0  0  0  0  0  0  0  0  0  0  0  0
  154.4888   44.4432  146.5148 C   0  0  0  0  0  0  0  0  0  0  0  0
  153.9248   44.6782  145.2975 N   0  0  0  0  0  0  0  0  0  0  0  0
  154.5083   45.7788  144.7971 C   0  0  0  0  0  0  0  0  0  0  0  0
  154.3992   46.5750  143.5481 C   0  0  0  0  0  0  0  0  0  0  0  0
  153.5891   46.2885  142.6405 O   0  0  0  0  0  0  0  0  0  0  0  0
  155.1893   47.6432  143.4283 N   0  0  0  0  0  0  0  0  0  0  0  0
  156.0706   47.9962  144.3767 C   0  0  0  0  0  0  0  0  0  0  0  0
  156.8252   49.0809  144.1457 N   0  0  0  0  0  0  0  0  0  0  0  0
  156.2350   47.3177  145.5364 N   0  0  0  0  0  0  0  0  0  0  0  0
  155.4976   46.2189  145.8012 C   0  0  0  0  0  0  0  0  0  0  0  0
  1  3  2  1  0  0  0
  1 32  1  0  0  0  0
  1  2  1  0  0  0  0
  1  4  1  0  0  0  0
  4  5  1  0  0  0  0
  6  5  1  1  0  0  0
  7  6  1  0  0  0  0
  8  6  1  0  0  0  0
  8 10  1  0  0  0  0
  8  9  1  6  0  0  0
 10 11  1  6  0  0  0
 12 13  1  1  0  0  0
 12  7  1  0  0  0  0
 12 10  1  0  0  0  0
 14 13  1  0  0  0  0
 15 16  1  0  0  0  0
 15 14  2  0  0  0  0
 16 23  2  0  0  0  0
 17 16  1  0  0  0  0
 17 19  1  0  0  0  0
 18 17  2  0  0  0  0
 19 20  2  0  0  0  0
 20 22  1  0  0  0  0
 20 21  1  0  0  0  0
 23 13  1  0  0  0  0
 23 22  1  0  0  0  0
 24 25  2  6  0  0  0
 24  9  1  0  0  0  0
 24 26  1  0  0  0  0
 27 28  1  0  0  0  0
 27 24  1  0  0  0  0
 29 30  1  6  0  0  0
 29 28  1  0  0  0  0
 31 32  1  1  0  0  0
 31 29  1  0  0  0  0
 33 34  1  1  0  0  0
 33 35  1  0  0  0  0
 33 31  1  0  0  0  0
 35 36  1  6  0  0  0
 35 30  1  0  0  0  0
 36 37  1  0  0  0  0
 38 37  2  0  0  0  0
 39 38  1  0  0  0  0
 40 41  2  0  0  0  0
 40 39  1  0  0  0  0
 42 40  1  0  0  0  0
 43 42  2  0  0  0  0
 43 45  1  0  0  0  0
 44 43  1  0  0  0  0
 45 46  1  0  0  0  0
 46 39  2  0  0  0  0
 46 36  1  0  0  0  0
M  END
>  <CHROM.1>
7.91995542,170.09624444,158.08375415,43.77474160,144.57046623,-1.75757544
0.84601971,-2.18031011

>  <Name>
lig.pdb

>  <RI>
0

>  <Rbt.Current_Directory>
/home/itssahil/PROJECTS/Mol_Feturizer/New_Systems/rnas/4yb0

>  <Rbt.Executable>
rbdock ($Id: //depot/dev/client3/rdock/2013.1/src/exe/rbdock.cxx#4 $)

>  <Rbt.Library>
libRbt.so (2013.1, Build901 2013/11/27)

>  <Rbt.Parameter_File>
/export/apps/rDock/src/rDock_2013.1_src/data/scripts/dock_solv.prm

>  <Rbt.Receptor>
prm/pocket_docking_4.prm

>  <SCORE>
-46.3442

>  <SCORE.INTER>
-45.9425

>  <SCORE.INTER.CONST>
1

>  <SCORE.INTER.POLAR>
0

>  <SCORE.INTER.ROT>
2

>  <SCORE.INTER.SOLV>
25.5331

>  <SCORE.INTER.VDW>
-44.0727

>  <SCORE.INTER.norm>
-0.998749

>  <SCORE.INTRA>
-0.401722

>  <SCORE.INTRA.DIHEDRAL>
0.0703305

>  <SCORE.INTRA.DIHEDRAL.0>
4.74153

>  <SCORE.INTRA.POLAR>
0

>  <SCORE.INTRA.POLAR.0>
0

>  <SCORE.INTRA.REPUL>
0

>  <SCORE.INTRA.REPUL.0>
0

>  <SCORE.INTRA.SOLV>
1.58693

>  <SCORE.INTRA.SOLV.lig_0>
-60.4375

>  <SCORE.INTRA.VDW>
-1.23035

>  <SCORE.INTRA.VDW.0>
-1.83689

>  <SCORE.INTRA.norm>
-0.00873309

>  <SCORE.RESTR>
0

>  <SCORE.RESTR.CAVITY>
0

>  <SCORE.RESTR.norm>
0

>  <SCORE.SYSTEM>
0

>  <SCORE.SYSTEM.CONST>
0

>  <SCORE.SYSTEM.DIHEDRAL>
0

>  <SCORE.SYSTEM.SOLV>
0

>  <SCORE.SYSTEM.norm>
0

>  <SCORE.heavy>
46

>  <SCORE.norm>
-1.00748

>  <RMSD>
2.213

$$$$
lig.pdb
 OpenBabel11021811523D
libRbt.so/2013.1/901 2013/11/27
 46 52  0  0  0  0  0  0  0  0999 V2000
  159.5116   41.9212  147.7090 P   0  0  2  0  0  0  0  0  0  0  0  0
  160.6401   41.2812  148.4878 O   0  0  0  0  0  0  0  0  0  0  0  0
  158.1707   41.2364  147.7729 O   0  0  0  0  0  0  0  0  0  0  0  0
  159.9057   42.1158  146.1624 O   0  0  0  0  0  0  0  0  0  0  0  0
  161.2331   41.9030  145.7001 C   0  0  0  0  0  0  0  0  0  0  0  0
  161.4107   42.5251  144.3249 C   0  0  1  0  0  0  0  0  0  0  0  0
  161.3779   41.4807  143.3625 O   0  0  0  0  0  0  0  0  0  0  0  0
  160.3367   43.5220  143.9083 C   0  0  1  0  0  0  0  0  0  0  0  0
  160.8401   44.8444  144.0273 O   0  0  0  0  0  0  0  0  0  0  0  0
  160.1334   43.2273  142.4390 C   0  0  1  0  0  0  0  0  0  0  0  0
  161.0240   44.0295  141.6611 O   0  0  0  0  0  0  0  0  0  0  0  0
  160.5560   41.7994  142.2500 C   0  0  2  0  0  0  0  0  0  0  0  0
  159.3571   40.9286  142.2816 N   0  0  0  0  0  0  0  0  0  0  0  0
  159.0322   40.0785  143.2711 C   0  0  0  0  0  0  0  0  0  0  0  0
  157.8827   39.4235  142.9794 N   0  0  0  0  0  0  0  0  0  0  0  0
  157.4514   39.8531  141.7801 C   0  0  0  0  0  0  0  0  0  0  0  0
  156.3001   39.5702  140.8910 C   0  0  0  0  0  0  0  0  0  0  0  0
  155.4343   38.7264  141.2262 O   0  0  0  0  0  0  0  0  0  0  0  0
  156.2242   40.2415  139.7291 N   0  0  0  0  0  0  0  0  0  0  0  0
  157.1569   41.1451  139.3732 C   0  0  0  0  0  0  0  0  0  0  0  0
  157.0268   41.7941  138.1946 N   0  0  0  0  0  0  0  0  0  0  0  0
  158.2309   41.4502  140.1362 N   0  0  0  0  0  0  0  0  0  0  0  0
  158.4293   40.8476  141.3281 C   0  0  0  0  0  0  0  0  0  0  0  0
  159.9032   46.1672  143.9342 P   0  0  2  0  0  0  0  0  0  0  0  0
  159.0259   46.0679  142.7100 O   0  0  0  0  0  0  0  0  0  0  0  0
  160.8287   47.3523  144.1364 O   0  0  0  0  0  0  0  0  0  0  0  0
  158.9490   46.0071  145.2277 O   0  0  0  0  0  0  0  0  0  0  0  0
  159.4299   46.3705  146.5212 C   0  0  0  0  0  0  0  0  0  0  0  0
  158.6205   45.7468  147.6625 C   0  0  1  0  0  0  0  0  0  0  0  0
  157.3566   46.4067  147.7612 O   0  0  0  0  0  0  0  0  0  0  0  0
  158.3297   44.2555  147.5097 C   0  0  1  0  0  0  0  0  0  0  0  0
  159.2894   43.4449  148.1865 O   0  0  0  0  0  0  0  0  0  0  0  0
  156.9531   44.1295  148.1351 C   0  0  1  0  0  0  0  0  0  0  0  0
  157.0524   43.9295  149.5479 O   0  0  0  0  0  0  0  0  0  0  0  0
  156.2860   45.4706  147.9119 C   0  0  2  0  0  0  0  0  0  0  0  0
  155.5045   45.4321  146.6510 N   0  0  0  0  0  0  0  0  0  0  0  0
  154.6035   44.4884  146.3130 C   0  0  0  0  0  0  0  0  0  0  0  0
  154.0419   44.7353  145.0969 N   0  0  0  0  0  0  0  0  0  0  0  0
  154.5856   45.8721  144.6337 C   0  0  0  0  0  0  0  0  0  0  0  0
  154.4563   46.6985  143.4066 C   0  0  0  0  0  0  0  0  0  0  0  0
  153.6669   46.4059  142.4828 O   0  0  0  0  0  0  0  0  0  0  0  0
  155.2040   47.8003  143.3250 N   0  0  0  0  0  0  0  0  0  0  0  0
  156.0617   48.1609  144.2921 C   0  0  0  0  0  0  0  0  0  0  0  0
  156.7743   49.2809  144.0996 N   0  0  0  0  0  0  0  0  0  0  0  0
  156.2422   47.4568  145.4340 N   0  0  0  0  0  0  0  0  0  0  0  0
  155.5470   46.3224  145.6601 C   0  0  0  0  0  0  0  0  0  0  0  0
  1  3  2  1  0  0  0
  1 32  1  0  0  0  0
  1  2  1  0  0  0  0
  1  4  1  0  0  0  0
  4  5  1  0  0  0  0
  6  5  1  1  0  0  0
  7  6  1  0  0  0  0
  8  6  1  0  0  0  0
  8 10  1  0  0  0  0
  8  9  1  6  0  0  0
 10 11  1  6  0  0  0
 12 13  1  1  0  0  0
 12  7  1  0  0  0  0
 12 10  1  0  0  0  0
 14 13  1  0  0  0  0
 15 16  1  0  0  0  0
 15 14  2  0  0  0  0
 16 23  2  0  0  0  0
 17 16  1  0  0  0  0
 17 19  1  0  0  0  0
 18 17  2  0  0  0  0
 19 20  2  0  0  0  0
 20 22  1  0  0  0  0
 20 21  1  0  0  0  0
 23 13  1  0  0  0  0
 23 22  1  0  0  0  0
 24 25  2  6  0  0  0
 24  9  1  0  0  0  0
 24 26  1  0  0  0  0
 27 28  1  0  0  0  0
 27 24  1  0  0  0  0
 29 30  1  6  0  0  0
 29 28  1  0  0  0  0
 31 32  1  1  0  0  0
 31 29  1  0  0  0  0
 33 34  1  1  0  0  0
 33 35  1  0  0  0  0
 33 31  1  0  0  0  0
 35 36  1  6  0  0  0
 35 30  1  0  0  0  0
 36 37  1  0  0  0  0
 38 37  2  0  0  0  0
 39 38  1  0  0  0  0
 40 41  2  0  0  0  0
 40 39  1  0  0  0  0
 42 40  1  0  0  0  0
 43 42  2  0  0  0  0
 43 45  1  0  0  0  0
 44 43  1  0  0  0  0
 45 46  1  0  0  0  0
 46 39  2  0  0  0  0
 46 36  1  0  0  0  0
M  END
>  <CHROM.1>
6.37434459,165.53031961,158.11779321,43.76350383,144.47320719,-1.77959873
0.86096420,-2.20384353

>  <Name>
lig.pdb

>  <RI>
0

>  <Rbt.Current_Directory>
/home/itssahil/PROJECTS/Mol_Feturizer/New_Systems/rnas/4yb0

>  <Rbt.Executable>
rbdock ($Id: //depot/dev/client3/rdock/2013.1/src/exe/rbdock.cxx#4 $)

>  <Rbt.Library>
libRbt.so (2013.1, Build901 2013/11/27)

>  <Rbt.Parameter_File>
/export/apps/rDock/src/rDock_2013.1_src/data/scripts/dock_solv.prm

>  <Rbt.Receptor>
prm/pocket_docking_5.prm

>  <SCORE>
-46.313

>  <SCORE.INTER>
-45.8594

>  <SCORE.INTER.CONST>
1

>  <SCORE.INTER.POLAR>
0

>  <SCORE.INTER.ROT>
2

>  <SCORE.INTER.SOLV>
26.0975

>  <SCORE.INTER.VDW>
-44.2054

>  <SCORE.INTER.norm>
-0.996943

>  <SCORE.INTRA>
-0.453606

>  <SCORE.INTRA.DIHEDRAL>
0.0850441

>  <SCORE.INTRA.DIHEDRAL.0>
4.74153

>  <SCORE.INTRA.POLAR>
0

>  <SCORE.INTRA.POLAR.0>
0

>  <SCORE.INTRA.REPUL>
0

>  <SCORE.INTRA.REPUL.0>
0

>  <SCORE.INTRA.SOLV>
0.773225

>  <SCORE.INTRA.SOLV.lig_0>
-60.4375

>  <SCORE.INTRA.VDW>
-0.882741

>  <SCORE.INTRA.VDW.0>
-1.83689

>  <SCORE.INTRA.norm>
-0.009861

>  <SCORE.RESTR>
0

>  <SCORE.RESTR.CAVITY>
0

>  <SCORE.RESTR.norm>
0

>  <SCORE.SYSTEM>
0

>  <SCORE.SYSTEM.CONST>
0

>  <SCORE.SYSTEM.DIHEDRAL>
0

>  <SCORE.SYSTEM.SOLV>
0

>  <SCORE.SYSTEM.norm>
0

>  <SCORE.heavy>
46

>  <SCORE.norm>
-1.0068

>  <RMSD>
2.213

$$$$
lig.pdb
 OpenBabel11021811523D
libRbt.so/2013.1/901 2013/11/27
 46 52  0  0  0  0  0  0  0  0999 V2000
  159.5436   41.9553  147.7705 P   0  0  2  0  0  0  0  0  0  0  0  0
  160.6995   41.3361  148.5256 O   0  0  0  0  0  0  0  0  0  0  0  0
  158.2236   41.2316  147.8401 O   0  0  0  0  0  0  0  0  0  0  0  0
  159.9126   42.1845  146.2225 O   0  0  0  0  0  0  0  0  0  0  0  0
  161.2396   42.0166  145.7409 C   0  0  0  0  0  0  0  0  0  0  0  0
  161.3822   42.6643  144.3734 C   0  0  1  0  0  0  0  0  0  0  0  0
  161.3670   41.6341  143.3954 O   0  0  0  0  0  0  0  0  0  0  0  0
  160.2753   43.6363  143.9854 C   0  0  1  0  0  0  0  0  0  0  0  0
  160.7425   44.9706  144.1188 O   0  0  0  0  0  0  0  0  0  0  0  0
  160.0619   43.3583  142.5143 C   0  0  1  0  0  0  0  0  0  0  0  0
  160.9197   44.1972  141.7381 O   0  0  0  0  0  0  0  0  0  0  0  0
  160.5225   41.9460  142.2981 C   0  0  2  0  0  0  0  0  0  0  0  0
  159.3492   41.0409  142.3307 N   0  0  0  0  0  0  0  0  0  0  0  0
  159.0344   40.2022  143.3331 C   0  0  0  0  0  0  0  0  0  0  0  0
  157.9092   39.5077  143.0387 N   0  0  0  0  0  0  0  0  0  0  0  0
  157.4835   39.8994  141.8246 C   0  0  0  0  0  0  0  0  0  0  0  0
  156.3545   39.5644  140.9251 C   0  0  0  0  0  0  0  0  0  0  0  0
  155.5089   38.7024  141.2654 O   0  0  0  0  0  0  0  0  0  0  0  0
  156.2765   40.2090  139.7483 N   0  0  0  0  0  0  0  0  0  0  0  0
  157.1876   41.1323  139.3870 C   0  0  0  0  0  0  0  0  0  0  0  0
  157.0563   41.7526  138.1931 N   0  0  0  0  0  0  0  0  0  0  0  0
  158.2407   41.4847  140.1588 N   0  0  0  0  0  0  0  0  0  0  0  0
  158.4386   40.9129  141.3658 C   0  0  0  0  0  0  0  0  0  0  0  0
  159.7674   46.2674  144.0575 P   0  0  2  0  0  0  0  0  0  0  0  0
  158.8779   46.1617  142.8426 O   0  0  0  0  0  0  0  0  0  0  0  0
  160.6614   47.4752  144.2668 O   0  0  0  0  0  0  0  0  0  0  0  0
  158.8344   46.0606  145.3598 O   0  0  0  0  0  0  0  0  0  0  0  0
  159.3210   46.4180  146.6528 C   0  0  0  0  0  0  0  0  0  0  0  0
  158.5440   45.7542  147.7941 C   0  0  1  0  0  0  0  0  0  0  0  0
  157.2632   46.3763  147.9183 O   0  0  0  0  0  0  0  0  0  0  0  0
  158.2937   44.2577  147.6217 C   0  0  1  0  0  0  0  0  0  0  0  0
  159.2844   43.4647  148.2742 O   0  0  0  0  0  0  0  0  0  0  0  0
  156.9291   44.0830  148.2617 C   0  0  1  0  0  0  0  0  0  0  0  0
  157.0518   43.8646  149.6700 O   0  0  0  0  0  0  0  0  0  0  0  0
  156.2216   45.4078  148.0674 C   0  0  2  0  0  0  0  0  0  0  0  0
  155.4257   45.3661  146.8157 N   0  0  0  0  0  0  0  0  0  0  0  0
  154.4764   44.4569  146.5175 C   0  0  0  0  0  0  0  0  0  0  0  0
  153.9146   44.6909  145.2990 N   0  0  0  0  0  0  0  0  0  0  0  0
  154.5077   45.7839  144.7933 C   0  0  0  0  0  0  0  0  0  0  0  0
  154.4056   46.5749  143.5404 C   0  0  0  0  0  0  0  0  0  0  0  0
  153.5931   46.2910  142.6341 O   0  0  0  0  0  0  0  0  0  0  0  0
  155.2050   47.6356  143.4154 N   0  0  0  0  0  0  0  0  0  0  0  0
  156.0894   47.9854  144.3622 C   0  0  0  0  0  0  0  0  0  0  0  0
  156.8534   49.0623  144.1260 N   0  0  0  0  0  0  0  0  0  0  0  0
  156.2477   47.3113  145.5252 N   0  0  0  0  0  0  0  0  0  0  0  0
  155.5008   46.2202  145.7953 C   0  0  0  0  0  0  0  0  0  0  0  0
  1  3  2  1  0  0  0
  1 32  1  0  0  0  0
  1  2  1  0  0  0  0
  1  4  1  0  0  0  0
  4  5  1  0  0  0  0
  6  5  1  1  0  0  0
  7  6  1  0  0  0  0
  8  6  1  0  0  0  0
  8 10  1  0  0  0  0
  8  9  1  6  0  0  0
 10 11  1  6  0  0  0
 12 13  1  1  0  0  0
 12  7  1  0  0  0  0
 12 10  1  0  0  0  0
 14 13  1  0  0  0  0
 15 16  1  0  0  0  0
 15 14  2  0  0  0  0
 16 23  2  0  0  0  0
 17 16  1  0  0  0  0
 17 19  1  0  0  0  0
 18 17  2  0  0  0  0
 19 20  2  0  0  0  0
 20 22  1  0  0  0  0
 20 21  1  0  0  0  0
 23 13  1  0  0  0  0
 23 22  1  0  0  0  0
 24 25  2  6  0  0  0
 24  9  1  0  0  0  0
 24 26  1  0  0  0  0
 27 28  1  0  0  0  0
 27 24  1  0  0  0  0
 29 30  1  6  0  0  0
 29 28  1  0  0  0  0
 31 32  1  1  0  0  0
 31 29  1  0  0  0  0
 33 34  1  1  0  0  0
 33 35  1  0  0  0  0
 33 31  1  0  0  0  0
 35 36  1  6  0  0  0
 35 30  1  0  0  0  0
 36 37  1  0  0  0  0
 38 37  2  0  0  0  0
 39 38  1  0  0  0  0
 40 41  2  0  0  0  0
 40 39  1  0  0  0  0
 42 40  1  0  0  0  0
 43 42  2  0  0  0  0
 43 45  1  0  0  0  0
 44 43  1  0  0  0  0
 45 46  1  0  0  0  0
 46 39  2  0  0  0  0
 46 36  1  0  0  0  0
M  END
>  <CHROM.1>
8.96331895,170.75045049,158.08578803,43.78065312,144.56211492,-1.75533283
0.84819738,-2.17731435

>  <Name>
lig.pdb

>  <RI>
0

>  <Rbt.Current_Directory>
/home/itssahil/PROJECTS/Mol_Feturizer/New_Systems/rnas/4yb0

>  <Rbt.Executable>
rbdock ($Id: //depot/dev/client3/rdock/2013.1/src/exe/rbdock.cxx#4 $)

>  <Rbt.Library>
libRbt.so (2013.1, Build901 2013/11/27)

>  <Rbt.Parameter_File>
/export/apps/rDock/src/rDock_2013.1_src/data/scripts/dock_solv.prm

>  <Rbt.Receptor>
prm/pocket_docking_4.prm

>  <SCORE>
-46.2378

>  <SCORE.INTER>
-45.8257

>  <SCORE.INTER.CONST>
1

>  <SCORE.INTER.POLAR>
0

>  <SCORE.INTER.ROT>
2

>  <SCORE.INTER.SOLV>
25.4984

>  <SCORE.INTER.VDW>
-43.9832

>  <SCORE.INTER.norm>
-0.996211

>  <SCORE.INTRA>
-0.412074

>  <SCORE.INTRA.DIHEDRAL>
0.0663112

>  <SCORE.INTRA.DIHEDRAL.0>
4.74153

>  <SCORE.INTRA.POLAR>
0

>  <SCORE.INTRA.POLAR.0>
0

>  <SCORE.INTRA.REPUL>
0

>  <SCORE.INTRA.REPUL.0>
0

>  <SCORE.INTRA.SOLV>
1.70172

>  <SCORE.INTRA.SOLV.lig_0>
-60.4375

>  <SCORE.INTRA.VDW>
-1.29609

>  <SCORE.INTRA.VDW.0>
-1.83689

>  <SCORE.INTRA.norm>
-0.00895812

>  <SCORE.RESTR>
0

>  <SCORE.RESTR.CAVITY>
0

>  <SCORE.RESTR.norm>
0

>  <SCORE.SYSTEM>
0

>  <SCORE.SYSTEM.CONST>
0

>  <SCORE.SYSTEM.DIHEDRAL>
0

>  <SCORE.SYSTEM.SOLV>
0

>  <SCORE.SYSTEM.norm>
0

>  <SCORE.heavy>
46

>  <SCORE.norm>
-1.00517

>  <RMSD>
2.214

$$$$
lig.pdb
 OpenBabel11021811523D
libRbt.so/2013.1/901 2013/11/27
 46 52  0  0  0  0  0  0  0  0999 V2000
  159.5123   41.9271  147.7626 P   0  0  2  0  0  0  0  0  0  0  0  0
  160.6463   41.2940  148.5391 O   0  0  0  0  0  0  0  0  0  0  0  0
  158.1771   41.2311  147.8248 O   0  0  0  0  0  0  0  0  0  0  0  0
  159.9042   42.1298  146.2166 O   0  0  0  0  0  0  0  0  0  0  0  0
  161.2332   41.9292  145.7532 C   0  0  0  0  0  0  0  0  0  0  0  0
  161.4053   42.5570  144.3799 C   0  0  1  0  0  0  0  0  0  0  0  0
  161.3808   41.5154  143.4143 O   0  0  0  0  0  0  0  0  0  0  0  0
  160.3230   43.5463  143.9667 C   0  0  1  0  0  0  0  0  0  0  0  0
  160.8156   44.8725  144.0897 O   0  0  0  0  0  0  0  0  0  0  0  0
  160.1216   43.2546  142.4966 C   0  0  1  0  0  0  0  0  0  0  0  0
  161.0055   44.0665  141.7209 O   0  0  0  0  0  0  0  0  0  0  0  0
  160.5560   41.8307  142.3030 C   0  0  2  0  0  0  0  0  0  0  0  0
  159.3642   40.9500  142.3323 N   0  0  0  0  0  0  0  0  0  0  0  0
  159.0454   40.0958  143.3203 C   0  0  0  0  0  0  0  0  0  0  0  0
  157.9017   39.4318  143.0266 N   0  0  0  0  0  0  0  0  0  0  0  0
  157.4679   39.8595  141.8275 C   0  0  0  0  0  0  0  0  0  0  0  0
  156.3198   39.5685  140.9369 C   0  0  0  0  0  0  0  0  0  0  0  0
  155.4607   38.7170  141.2701 O   0  0  0  0  0  0  0  0  0  0  0  0
  156.2394   40.2408  139.7759 N   0  0  0  0  0  0  0  0  0  0  0  0
  157.1649   41.1526  139.4222 C   0  0  0  0  0  0  0  0  0  0  0  0
  157.0305   41.8021  138.2444 N   0  0  0  0  0  0  0  0  0  0  0  0
  158.2357   41.4655  140.1866 N   0  0  0  0  0  0  0  0  0  0  0  0
  158.4379   40.8628  141.3778 C   0  0  0  0  0  0  0  0  0  0  0  0
  159.8678   46.1878  144.0009 P   0  0  2  0  0  0  0  0  0  0  0  0
  158.9910   46.0851  142.7766 O   0  0  0  0  0  0  0  0  0  0  0  0
  160.7836   47.3798  144.2065 O   0  0  0  0  0  0  0  0  0  0  0  0
  158.9154   46.0159  145.2942 O   0  0  0  0  0  0  0  0  0  0  0  0
  159.3937   46.3793  146.5887 C   0  0  0  0  0  0  0  0  0  0  0  0
  158.5898   45.7454  147.7282 C   0  0  1  0  0  0  0  0  0  0  0  0
  157.3206   46.3946  147.8294 O   0  0  0  0  0  0  0  0  0  0  0  0
  158.3112   44.2522  147.5709 C   0  0  1  0  0  0  0  0  0  0  0  0
  159.2778   43.4475  148.2449 O   0  0  0  0  0  0  0  0  0  0  0  0
  156.9358   44.1130  148.1963 C   0  0  1  0  0  0  0  0  0  0  0  0
  157.0373   43.9095  149.6085 O   0  0  0  0  0  0  0  0  0  0  0  0
  156.2577   45.4493  147.9775 C   0  0  2  0  0  0  0  0  0  0  0  0
  155.4761   45.4082  146.7167 N   0  0  0  0  0  0  0  0  0  0  0  0
  154.5564   44.4781  146.3918 C   0  0  0  0  0  0  0  0  0  0  0  0
  154.0005   44.7186  145.1718 N   0  0  0  0  0  0  0  0  0  0  0  0
  154.5672   45.8373  144.6926 C   0  0  0  0  0  0  0  0  0  0  0  0
  154.4552   46.6483  143.4534 C   0  0  0  0  0  0  0  0  0  0  0  0
  153.6605   46.3583  142.5334 O   0  0  0  0  0  0  0  0  0  0  0  0
  155.2251   47.7334  143.3564 N   0  0  0  0  0  0  0  0  0  0  0  0
  156.0894   48.0906  144.3188 C   0  0  0  0  0  0  0  0  0  0  0  0
  156.8247   49.1930  144.1106 N   0  0  0  0  0  0  0  0  0  0  0  0
  156.2552   47.3997  145.4710 N   0  0  0  0  0  0  0  0  0  0  0  0
  155.5371   46.2830  145.7130 C   0  0  0  0  0  0  0  0  0  0  0  0
  1  3  2  1  0  0  0
  1 32  1  0  0  0  0
  1  2  1  0  0  0  0
  1  4  1  0  0  0  0
  4  5  1  0  0  0  0
  6  5  1  1  0  0  0
  7  6  1  0  0  0  0
  8  6  1  0  0  0  0
  8 10  1  0  0  0  0
  8  9  1  6  0  0  0
 10 11  1  6  0  0  0
 12 13  1  1  0  0  0
 12  7  1  0  0  0  0
 12 10  1  0  0  0  0
 14 13  1  0  0  0  0
 15 16  1  0  0  0  0
 15 14  2  0  0  0  0
 16 23  2  0  0  0  0
 17 16  1  0  0  0  0
 17 19  1  0  0  0  0
 18 17  2  0  0  0  0
 19 20  2  0  0  0  0
 20 22  1  0  0  0  0
 20 21  1  0  0  0  0
 23 13  1  0  0  0  0
 23 22  1  0  0  0  0
 24 25  2  6  0  0  0
 24  9  1  0  0  0  0
 24 26  1  0  0  0  0
 27 28  1  0  0  0  0
 27 24  1  0  0  0  0
 29 30  1  6  0  0  0
 29 28  1  0  0  0  0
 31 32  1  1  0  0  0
 31 29  1  0  0  0  0
 33 34  1  1  0  0  0
 33 35  1  0  0  0  0
 33 31  1  0  0  0  0
 35 36  1  6  0  0  0
 35 30  1  0  0  0  0
 36 37  1  0  0  0  0
 38 37  2  0  0  0  0
 39 38  1  0  0  0  0
 40 41  2  0  0  0  0
 40 39  1  0  0  0  0
 42 40  1  0  0  0  0
 43 42  2  0  0  0  0
 43 45  1  0  0  0  0
 44 43  1  0  0  0  0
 45 46  1  0  0  0  0
 46 39  2  0  0  0  0
 46 36  1  0  0  0  0
M  END
>  <CHROM.1>
6.49184516,167.44768694,158.11028271,43.76195429,144.52819852,-1.77245558
0.85978911,-2.19523652

>  <Name>
lig.pdb

>  <RI>
0

>  <Rbt.Current_Directory>
/home/itssahil/PROJECTS/Mol_Feturizer/New_Systems/rnas/4yb0

>  <Rbt.Executable>
rbdock ($Id: //depot/dev/client3/rdock/2013.1/src/exe/rbdock.cxx#4 $)

>  <Rbt.Library>
libRbt.so (2013.1, Build901 2013/11/27)

>  <Rbt.Parameter_File>
/export/apps/rDock/src/rDock_2013.1_src/data/scripts/dock_solv.prm

>  <Rbt.Receptor>
prm/pocket_docking_8.prm

>  <SCORE>
-46.4324

>  <SCORE.INTER>
-45.9927

>  <SCORE.INTER.CONST>
1

>  <SCORE.INTER.POLAR>
0

>  <SCORE.INTER.ROT>
2

>  <SCORE.INTER.SOLV>
25.7299

>  <SCORE.INTER.VDW>
-44.1718

>  <SCORE.INTER.norm>
-0.999842

>  <SCORE.INTRA>
-0.439657

>  <SCORE.INTRA.DIHEDRAL>
0.0802978

>  <SCORE.INTRA.DIHEDRAL.0>
4.74153

>  <SCORE.INTRA.POLAR>
0

>  <SCORE.INTRA.POLAR.0>
0

>  <SCORE.INTRA.REPUL>
0

>  <SCORE.INTRA.REPUL.0>
0

>  <SCORE.INTRA.SOLV>
1.1159

>  <SCORE.INTRA.SOLV.lig_0>
-60.4375

>  <SCORE.INTRA.VDW>
-1.03776

>  <SCORE.INTRA.VDW.0>
-1.83689

>  <SCORE.INTRA.norm>
-0.00955777

>  <SCORE.RESTR>
0

>  <SCORE.RESTR.CAVITY>
0

>  <SCORE.RESTR.norm>
0

>  <SCORE.SYSTEM>
0

>  <SCORE.SYSTEM.CONST>
0

>  <SCORE.SYSTEM.DIHEDRAL>
0

>  <SCORE.SYSTEM.SOLV>
0

>  <SCORE.SYSTEM.norm>
0

>  <SCORE.heavy>
46

>  <SCORE.norm>
-1.0094

>  <RMSD>
2.216

$$$$
lig.pdb
 OpenBabel11021811523D
libRbt.so/2013.1/901 2013/11/27
 46 52  0  0  0  0  0  0  0  0999 V2000
  159.5100   41.9255  147.7608 P   0  0  2  0  0  0  0  0  0  0  0  0
  160.6444   41.2909  148.5354 O   0  0  0  0  0  0  0  0  0  0  0  0
  158.1743   41.2306  147.8241 O   0  0  0  0  0  0  0  0  0  0  0  0
  159.9003   42.1289  146.2143 O   0  0  0  0  0  0  0  0  0  0  0  0
  161.2285   41.9275  145.7492 C   0  0  0  0  0  0  0  0  0  0  0  0
  161.3994   42.5561  144.3761 C   0  0  1  0  0  0  0  0  0  0  0  0
  161.3729   41.5152  143.4098 O   0  0  0  0  0  0  0  0  0  0  0  0
  160.3175   43.5467  143.9649 C   0  0  1  0  0  0  0  0  0  0  0  0
  160.8114   44.8723  144.0882 O   0  0  0  0  0  0  0  0  0  0  0  0
  160.1141   43.2561  142.4949 C   0  0  1  0  0  0  0  0  0  0  0  0
  160.9977   44.0677  141.7186 O   0  0  0  0  0  0  0  0  0  0  0  0
  160.5469   41.8320  142.2998 C   0  0  2  0  0  0  0  0  0  0  0  0
  159.3545   40.9523  142.3299 N   0  0  0  0  0  0  0  0  0  0  0  0
  159.0333   40.1016  143.3201 C   0  0  0  0  0  0  0  0  0  0  0  0
  157.8896   39.4375  143.0267 N   0  0  0  0  0  0  0  0  0  0  0  0
  157.4582   39.8616  141.8255 C   0  0  0  0  0  0  0  0  0  0  0  0
  156.3114   39.5685  140.9339 C   0  0  0  0  0  0  0  0  0  0  0  0
  155.4511   38.7188  141.2684 O   0  0  0  0  0  0  0  0  0  0  0  0
  156.2335   40.2371  139.7705 N   0  0  0  0  0  0  0  0  0  0  0  0
  157.1604   41.1470  139.4154 C   0  0  0  0  0  0  0  0  0  0  0  0
  157.0285   41.7927  138.2352 N   0  0  0  0  0  0  0  0  0  0  0  0
  158.2301   41.4616  140.1807 N   0  0  0  0  0  0  0  0  0  0  0  0
  158.4298   40.8627  141.3741 C   0  0  0  0  0  0  0  0  0  0  0  0
  159.8647   46.1885  144.0015 P   0  0  2  0  0  0  0  0  0  0  0  0
  158.9863   46.0874  142.7783 O   0  0  0  0  0  0  0  0  0  0  0  0
  160.7818   47.3796  144.2068 O   0  0  0  0  0  0  0  0  0  0  0  0
  158.9136   46.0166  145.2959 O   0  0  0  0  0  0  0  0  0  0  0  0
  159.3938   46.3786  146.5900 C   0  0  0  0  0  0  0  0  0  0  0  0
  158.5908   45.7446  147.7301 C   0  0  1  0  0  0  0  0  0  0  0  0
  157.3223   46.3949  147.8332 O   0  0  0  0  0  0  0  0  0  0  0  0
  158.3107   44.2518  147.5721 C   0  0  1  0  0  0  0  0  0  0  0  0
  159.2774   43.4457  148.2444 O   0  0  0  0  0  0  0  0  0  0  0  0
  156.9360   44.1133  148.1991 C   0  0  1  0  0  0  0  0  0  0  0  0
  157.0390   43.9088  149.6110 O   0  0  0  0  0  0  0  0  0  0  0  0
  156.2588   45.4504  147.9820 C   0  0  2  0  0  0  0  0  0  0  0  0
  155.4756   45.4109  146.7222 N   0  0  0  0  0  0  0  0  0  0  0  0
  154.5501   44.4855  146.4005 C   0  0  0  0  0  0  0  0  0  0  0  0
  153.9943   44.7263  145.1806 N   0  0  0  0  0  0  0  0  0  0  0  0
  154.5671   45.8404  144.6980 C   0  0  0  0  0  0  0  0  0  0  0  0
  154.4586   46.6489  143.4569 C   0  0  0  0  0  0  0  0  0  0  0  0
  153.6612   46.3615  142.5385 O   0  0  0  0  0  0  0  0  0  0  0  0
  155.2348   47.7292  143.3565 N   0  0  0  0  0  0  0  0  0  0  0  0
  156.1023   48.0837  144.3171 C   0  0  0  0  0  0  0  0  0  0  0  0
  156.8438   49.1812  144.1054 N   0  0  0  0  0  0  0  0  0  0  0  0
  156.2652   47.3946  145.4707 N   0  0  0  0  0  0  0  0  0  0  0  0
  155.5407   46.2828  145.7163 C   0  0  0  0  0  0  0  0  0  0  0  0
  1  3  2  1  0  0  0
  1 32  1  0  0  0  0
  1  2  1  0  0  0  0
  1  4  1  0  0  0  0
  4  5  1  0  0  0  0
  6  5  1  1  0  0  0
  7  6  1  0  0  0  0
  8  6  1  0  0  0  0
  8 10  1  0  0  0  0
  8  9  1  6  0  0  0
 10 11  1  6  0  0  0
 12 13  1  1  0  0  0
 12  7  1  0  0  0  0
 12 10  1  0  0  0  0
 14 13  1  0  0  0  0
 15 16  1  0  0  0  0
 15 14  2  0  0  0  0
 16 23  2  0  0  0  0
 17 16  1  0  0  0  0
 17 19  1  0  0  0  0
 18 17  2  0  0  0  0
 19 20  2  0  0  0  0
 20 22  1  0  0  0  0
 20 21  1  0  0  0  0
 23 13  1  0  0  0  0
 23 22  1  0  0  0  0
 24 25  2  6  0  0  0
 24  9  1  0  0  0  0
 24 26  1  0  0  0  0
 27 28  1  0  0  0  0
 27 24  1  0  0  0  0
 29 30  1  6  0  0  0
 29 28  1  0  0  0  0
 31 32  1  1  0  0  0
 31 29  1  0  0  0  0
 33 34  1  1  0  0  0
 33 35  1  0  0  0  0
 33 31  1  0  0  0  0
 35 36  1  6  0  0  0
 35 30  1  0  0  0  0
 36 37  1  0  0  0  0
 38 37  2  0  0  0  0
 39 38  1  0  0  0  0
 40 41  2  0  0  0  0
 40 39  1  0  0  0  0
 42 40  1  0  0  0  0
 43 42  2  0  0  0  0
 43 45  1  0  0  0  0
 44 43  1  0  0  0  0
 45 46  1  0  0  0  0
 46 39  2  0  0  0  0
 46 36  1  0  0  0  0
M  END
>  <CHROM.1>
6.77563176,167.78878220,158.10782229,43.76167470,144.52783257,-1.76795030
0.86110664,-2.19589807

>  <Name>
lig.pdb

>  <RI>
0

>  <Rbt.Current_Directory>
/home/itssahil/PROJECTS/Mol_Feturizer/New_Systems/rnas/4yb0

>  <Rbt.Executable>
rbdock ($Id: //depot/dev/client3/rdock/2013.1/src/exe/rbdock.cxx#4 $)

>  <Rbt.Library>
libRbt.so (2013.1, Build901 2013/11/27)

>  <Rbt.Parameter_File>
/export/apps/rDock/src/rDock_2013.1_src/data/scripts/dock_solv.prm

>  <Rbt.Receptor>
prm/pocket_docking_7.prm

>  <SCORE>
-46.4121

>  <SCORE.INTER>
-45.9779

>  <SCORE.INTER.CONST>
1

>  <SCORE.INTER.POLAR>
0

>  <SCORE.INTER.ROT>
2

>  <SCORE.INTER.SOLV>
25.7085

>  <SCORE.INTER.VDW>
-44.1548

>  <SCORE.INTER.norm>
-0.999521

>  <SCORE.INTRA>
-0.43412

>  <SCORE.INTRA.DIHEDRAL>
0.0788239

>  <SCORE.INTRA.DIHEDRAL.0>
4.74153

>  <SCORE.INTRA.POLAR>
0

>  <SCORE.INTRA.POLAR.0>
0

>  <SCORE.INTRA.REPUL>
0

>  <SCORE.INTRA.REPUL.0>
0

>  <SCORE.INTRA.SOLV>
1.17511

>  <SCORE.INTRA.SOLV.lig_0>
-60.4375

>  <SCORE.INTRA.VDW>
-1.06109

>  <SCORE.INTRA.VDW.0>
-1.83689

>  <SCORE.INTRA.norm>
-0.00943739

>  <SCORE.RESTR>
0

>  <SCORE.RESTR.CAVITY>
0

>  <SCORE.RESTR.norm>
0

>  <SCORE.SYSTEM>
0

>  <SCORE.SYSTEM.CONST>
0

>  <SCORE.SYSTEM.DIHEDRAL>
0

>  <SCORE.SYSTEM.SOLV>
0

>  <SCORE.SYSTEM.norm>
0

>  <SCORE.heavy>
46

>  <SCORE.norm>
-1.00896

>  <RMSD>
2.218

$$$$
lig.pdb
 OpenBabel11021811523D
libRbt.so/2013.1/901 2013/11/27
 46 52  0  0  0  0  0  0  0  0999 V2000
  159.5264   41.9079  147.7551 P   0  0  2  0  0  0  0  0  0  0  0  0
  160.6596   41.2687  148.5277 O   0  0  0  0  0  0  0  0  0  0  0  0
  158.1883   41.2176  147.8197 O   0  0  0  0  0  0  0  0  0  0  0  0
  159.9152   42.1112  146.2083 O   0  0  0  0  0  0  0  0  0  0  0  0
  161.2421   41.9056  145.7412 C   0  0  0  0  0  0  0  0  0  0  0  0
  161.4134   42.5346  144.3684 C   0  0  1  0  0  0  0  0  0  0  0  0
  161.3819   41.4946  143.4013 O   0  0  0  0  0  0  0  0  0  0  0  0
  160.3343   43.5292  143.9594 C   0  0  1  0  0  0  0  0  0  0  0  0
  160.8329   44.8531  144.0831 O   0  0  0  0  0  0  0  0  0  0  0  0
  160.1279   43.2406  142.4894 C   0  0  1  0  0  0  0  0  0  0  0  0
  161.0132   44.0498  141.7126 O   0  0  0  0  0  0  0  0  0  0  0  0
  160.5555   41.8151  142.2927 C   0  0  2  0  0  0  0  0  0  0  0  0
  159.3600   40.9396  142.3237 N   0  0  0  0  0  0  0  0  0  0  0  0
  159.0396   40.0860  143.3117 C   0  0  0  0  0  0  0  0  0  0  0  0
  157.8925   39.4271  143.0198 N   0  0  0  0  0  0  0  0  0  0  0  0
  157.4580   39.8577  141.8220 C   0  0  0  0  0  0  0  0  0  0  0  0
  156.3068   39.5722  140.9336 C   0  0  0  0  0  0  0  0  0  0  0  0
  155.4448   38.7243  141.2679 O   0  0  0  0  0  0  0  0  0  0  0  0
  156.2270   40.2458  139.7732 N   0  0  0  0  0  0  0  0  0  0  0  0
  157.1557   41.1539  139.4183 C   0  0  0  0  0  0  0  0  0  0  0  0
  157.0216   41.8049  138.2413 N   0  0  0  0  0  0  0  0  0  0  0  0
  158.2294   41.4615  140.1808 N   0  0  0  0  0  0  0  0  0  0  0  0
  158.4315   40.8571  141.3711 C   0  0  0  0  0  0  0  0  0  0  0  0
  159.8907   46.1726  143.9987 P   0  0  2  0  0  0  0  0  0  0  0  0
  159.0102   46.0755  142.7766 O   0  0  0  0  0  0  0  0  0  0  0  0
  160.8122   47.3603  144.2037 O   0  0  0  0  0  0  0  0  0  0  0  0
  158.9408   46.0029  145.2942 O   0  0  0  0  0  0  0  0  0  0  0  0
  159.4240   46.3623  146.5880 C   0  0  0  0  0  0  0  0  0  0  0  0
  158.6204   45.7302  147.7287 C   0  0  1  0  0  0  0  0  0  0  0  0
  157.3542   46.3847  147.8341 O   0  0  0  0  0  0  0  0  0  0  0  0
  158.3349   44.2385  147.5699 C   0  0  1  0  0  0  0  0  0  0  0  0
  159.2997   43.4285  148.2402 O   0  0  0  0  0  0  0  0  0  0  0  0
  156.9606   44.1042  148.1987 C   0  0  1  0  0  0  0  0  0  0  0  0
  157.0648   43.8982  149.6102 O   0  0  0  0  0  0  0  0  0  0  0  0
  156.2877   45.4438  147.9836 C   0  0  2  0  0  0  0  0  0  0  0  0
  155.5027   45.4080  146.7247 N   0  0  0  0  0  0  0  0  0  0  0  0
  154.5978   44.4673  146.3890 C   0  0  0  0  0  0  0  0  0  0  0  0
  154.0338   44.7162  145.1745 N   0  0  0  0  0  0  0  0  0  0  0  0
  154.5798   45.8513  144.7100 C   0  0  0  0  0  0  0  0  0  0  0  0
  154.4499   46.6784  143.4833 C   0  0  0  0  0  0  0  0  0  0  0  0
  153.6571   46.3885  142.5616 O   0  0  0  0  0  0  0  0  0  0  0  0
  155.2009   47.7778  143.4000 N   0  0  0  0  0  0  0  0  0  0  0  0
  156.0623   48.1354  144.3649 C   0  0  0  0  0  0  0  0  0  0  0  0
  156.7780   49.2532  144.1707 N   0  0  0  0  0  0  0  0  0  0  0  0
  156.2437   47.4305  145.5061 N   0  0  0  0  0  0  0  0  0  0  0  0
  155.5454   46.2984  145.7339 C   0  0  0  0  0  0  0  0  0  0  0  0
  1  3  2  1  0  0  0
  1 32  1  0  0  0  0
  1  2  1  0  0  0  0
  1  4  1  0  0  0  0
  4  5  1  0  0  0  0
  6  5  1  1  0  0  0
  7  6  1  0  0  0  0
  8  6  1  0  0  0  0
  8 10  1  0  0  0  0
  8  9  1  6  0  0  0
 10 11  1  6  0  0  0
 12 13  1  1  0  0  0
 12  7  1  0  0  0  0
 12 10  1  0  0  0  0
 14 13  1  0  0  0  0
 15 16  1  0  0  0  0
 15 14  2  0  0  0  0
 16 23  2  0  0  0  0
 17 16  1  0  0  0  0
 17 19  1  0  0  0  0
 18 17  2  0  0  0  0
 19 20  2  0  0  0  0
 20 22  1  0  0  0  0
 20 21  1  0  0  0  0
 23 13  1  0  0  0  0
 23 22  1  0  0  0  0
 24 25  2  6  0  0  0
 24  9  1  0  0  0  0
 24 26  1  0  0  0  0
 27 28  1  0  0  0  0
 27 24  1  0  0  0  0
 29 30  1  6  0  0  0
 29 28  1  0  0  0  0
 31 32  1  1  0  0  0
 31 29  1  0  0  0  0
 33 34  1  1  0  0  0
 33 35  1  0  0  0  0
 33 31  1  0  0  0  0
 35 36  1  6  0  0  0
 35 30  1  0  0  0  0
 36 37  1  0  0  0  0
 38 37  2  0  0  0  0
 39 38  1  0  0  0  0
 40 41  2  0  0  0  0
 40 39  1  0  0  0  0
 42 40  1  0  0  0  0
 43 42  2  0  0  0  0
 43 45  1  0  0  0  0
 44 43  1  0  0  0  0
 45 46  1  0  0  0  0
 46 39  2  0  0  0  0
 46 36  1  0  0  0  0
M  END
>  <CHROM.1>
6.54213446,166.00804419,158.11850218,43.75755654,144.53028098,-1.77610792
0.85777990,-2.19910508

>  <Name>
lig.pdb

>  <RI>
0

>  <Rbt.Current_Directory>
/home/itssahil/PROJECTS/Mol_Feturizer/New_Systems/rnas/4yb0

>  <Rbt.Executable>
rbdock ($Id: //depot/dev/client3/rdock/2013.1/src/exe/rbdock.cxx#4 $)

>  <Rbt.Library>
libRbt.so (2013.1, Build901 2013/11/27)

>  <Rbt.Parameter_File>
/export/apps/rDock/src/rDock_2013.1_src/data/scripts/dock_solv.prm

>  <Rbt.Receptor>
prm/pocket_docking_5.prm

>  <SCORE>
-46.3869

>  <SCORE.INTER>
-45.9264

>  <SCORE.INTER.CONST>
1

>  <SCORE.INTER.POLAR>
0

>  <SCORE.INTER.ROT>
2

>  <SCORE.INTER.SOLV>
25.8215

>  <SCORE.INTER.VDW>
-44.1581

>  <SCORE.INTER.norm>
-0.9984

>  <SCORE.INTRA>
-0.460481

>  <SCORE.INTRA.DIHEDRAL>
0.0835887

>  <SCORE.INTRA.DIHEDRAL.0>
4.74153

>  <SCORE.INTRA.POLAR>
0

>  <SCORE.INTRA.POLAR.0>
0

>  <SCORE.INTRA.REPUL>
0

>  <SCORE.INTRA.REPUL.0>
0

>  <SCORE.INTRA.SOLV>
0.858532

>  <SCORE.INTRA.SOLV.lig_0>
-60.4375

>  <SCORE.INTRA.VDW>
-0.931542

>  <SCORE.INTRA.VDW.0>
-1.83689

>  <SCORE.INTRA.norm>
-0.0100105

>  <SCORE.RESTR>
0

>  <SCORE.RESTR.CAVITY>
0

>  <SCORE.RESTR.norm>
0

>  <SCORE.SYSTEM>
0

>  <SCORE.SYSTEM.CONST>
0

>  <SCORE.SYSTEM.DIHEDRAL>
0

>  <SCORE.SYSTEM.SOLV>
0

>  <SCORE.SYSTEM.norm>
0

>  <SCORE.heavy>
46

>  <SCORE.norm>
-1.00841

>  <RMSD>
2.222

$$$$
lig.pdb
 OpenBabel11021811523D
libRbt.so/2013.1/901 2013/11/27
 46 52  0  0  0  0  0  0  0  0999 V2000
  159.5458   41.9172  147.6996 P   0  0  2  0  0  0  0  0  0  0  0  0
  160.6820   41.2788  148.4684 O   0  0  0  0  0  0  0  0  0  0  0  0
  158.2088   41.2252  147.7675 O   0  0  0  0  0  0  0  0  0  0  0  0
  159.9299   42.1223  146.1519 O   0  0  0  0  0  0  0  0  0  0  0  0
  161.2556   41.9187  145.6807 C   0  0  0  0  0  0  0  0  0  0  0  0
  161.4221   42.5491  144.3080 C   0  0  1  0  0  0  0  0  0  0  0  0
  161.3891   41.5098  143.3401 O   0  0  0  0  0  0  0  0  0  0  0  0
  160.3407   43.5428  143.9030 C   0  0  1  0  0  0  0  0  0  0  0  0
  160.8381   44.8671  144.0264 O   0  0  0  0  0  0  0  0  0  0  0  0
  160.1304   43.2551  142.4334 C   0  0  1  0  0  0  0  0  0  0  0  0
  161.0124   44.0660  141.6547 O   0  0  0  0  0  0  0  0  0  0  0  0
  160.5591   41.8304  142.2341 C   0  0  2  0  0  0  0  0  0  0  0  0
  159.3648   40.9533  142.2679 N   0  0  0  0  0  0  0  0  0  0  0  0
  159.0401   40.1098  143.2632 C   0  0  0  0  0  0  0  0  0  0  0  0
  157.8956   39.4462  142.9720 N   0  0  0  0  0  0  0  0  0  0  0  0
  157.4672   39.8632  141.7673 C   0  0  0  0  0  0  0  0  0  0  0  0
  156.3214   39.5665  140.8755 C   0  0  0  0  0  0  0  0  0  0  0  0
  155.4588   38.7208  141.2141 O   0  0  0  0  0  0  0  0  0  0  0  0
  156.2471   40.2274  139.7076 N   0  0  0  0  0  0  0  0  0  0  0  0
  157.1764   41.1331  139.3482 C   0  0  0  0  0  0  0  0  0  0  0  0
  157.0479   41.7712  138.1635 N   0  0  0  0  0  0  0  0  0  0  0  0
  158.2453   41.4505  140.1133 N   0  0  0  0  0  0  0  0  0  0  0  0
  158.4417   40.8592  141.3111 C   0  0  0  0  0  0  0  0  0  0  0  0
  159.8940   46.1855  143.9459 P   0  0  2  0  0  0  0  0  0  0  0  0
  159.0101   46.0885  142.7262 O   0  0  0  0  0  0  0  0  0  0  0  0
  160.8147   47.3742  144.1492 O   0  0  0  0  0  0  0  0  0  0  0  0
  158.9481   46.0137  145.2440 O   0  0  0  0  0  0  0  0  0  0  0  0
  159.4347   46.3725  146.5366 C   0  0  0  0  0  0  0  0  0  0  0  0
  158.6351   45.7384  147.6792 C   0  0  1  0  0  0  0  0  0  0  0  0
  157.3685   46.3914  147.7888 O   0  0  0  0  0  0  0  0  0  0  0  0
  158.3510   44.2465  147.5199 C   0  0  1  0  0  0  0  0  0  0  0  0
  159.3187   43.4372  148.1867 O   0  0  0  0  0  0  0  0  0  0  0  0
  156.9786   44.1101  148.1525 C   0  0  1  0  0  0  0  0  0  0  0  0
  157.0872   43.9030  149.5636 O   0  0  0  0  0  0  0  0  0  0  0  0
  156.3035   45.4490  147.9405 C   0  0  2  0  0  0  0  0  0  0  0  0
  155.5149   45.4134  146.6840 N   0  0  0  0  0  0  0  0  0  0  0  0
  154.5927   44.4852  146.3607 C   0  0  0  0  0  0  0  0  0  0  0  0
  154.0302   44.7308  145.1447 N   0  0  0  0  0  0  0  0  0  0  0  0
  154.5950   45.8508  144.6666 C   0  0  0  0  0  0  0  0  0  0  0  0
  154.4767   46.6666  143.4312 C   0  0  0  0  0  0  0  0  0  0  0  0
  153.6767   46.3808  142.5145 O   0  0  0  0  0  0  0  0  0  0  0  0
  155.2469   47.7515  143.3341 N   0  0  0  0  0  0  0  0  0  0  0  0
  156.1168   48.1044  144.2930 C   0  0  0  0  0  0  0  0  0  0  0  0
  156.8517   49.2071  144.0849 N   0  0  0  0  0  0  0  0  0  0  0  0
  156.2885   47.4090  145.4415 N   0  0  0  0  0  0  0  0  0  0  0  0
  155.5709   46.2919  145.6833 C   0  0  0  0  0  0  0  0  0  0  0  0
  1  3  2  1  0  0  0
  1 32  1  0  0  0  0
  1  2  1  0  0  0  0
  1  4  1  0  0  0  0
  4  5  1  0  0  0  0
  6  5  1  1  0  0  0
  7  6  1  0  0  0  0
  8  6  1  0  0  0  0
  8 10  1  0  0  0  0
  8  9  1  6  0  0  0
 10 11  1  6  0  0  0
 12 13  1  1  0  0  0
 12  7  1  0  0  0  0
 12 10  1  0  0  0  0
 14 13  1  0  0  0  0
 15 16  1  0  0  0  0
 15 14  2  0  0  0  0
 16 23  2  0  0  0  0
 17 16  1  0  0  0  0
 17 19  1  0  0  0  0
 18 17  2  0  0  0  0
 19 20  2  0  0  0  0
 20 22  1  0  0  0  0
 20 21  1  0  0  0  0
 23 13  1  0  0  0  0
 23 22  1  0  0  0  0
 24 25  2  6  0  0  0
 24  9  1  0  0  0  0
 24 26  1  0  0  0  0
 27 28  1  0  0  0  0
 27 24  1  0  0  0  0
 29 30  1  6  0  0  0
 29 28  1  0  0  0  0
 31 32  1  1  0  0  0
 31 29  1  0  0  0  0
 33 34  1  1  0  0  0
 33 35  1  0  0  0  0
 33 31  1  0  0  0  0
 35 36  1  6  0  0  0
 35 30  1  0  0  0  0
 36 37  1  0  0  0  0
 38 37  2  0  0  0  0
 39 38  1  0  0  0  0
 40 41  2  0  0  0  0
 40 39  1  0  0  0  0
 42 40  1  0  0  0  0
 43 42  2  0  0  0  0
 43 45  1  0  0  0  0
 44 43  1  0  0  0  0
 45 46  1  0  0  0  0
 46 39  2  0  0  0  0
 46 36  1  0  0  0  0
M  END
>  <CHROM.1>
7.36451883,167.28574511,158.13368367,43.76096462,144.47549056,-1.76500478
0.85988952,-2.19911399

>  <Name>
lig.pdb

>  <RI>
0

>  <Rbt.Current_Directory>
/home/itssahil/PROJECTS/Mol_Feturizer/New_Systems/rnas/4yb0

>  <Rbt.Executable>
rbdock ($Id: //depot/dev/client3/rdock/2013.1/src/exe/rbdock.cxx#4 $)

>  <Rbt.Library>
libRbt.so (2013.1, Build901 2013/11/27)

>  <Rbt.Parameter_File>
/export/apps/rDock/src/rDock_2013.1_src/data/scripts/dock_solv.prm

>  <Rbt.Receptor>
prm/pocket_docking_6.prm

>  <SCORE>
-46.2432

>  <SCORE.INTER>
-45.7892

>  <SCORE.INTER.CONST>
1

>  <SCORE.INTER.POLAR>
0

>  <SCORE.INTER.ROT>
2

>  <SCORE.INTER.SOLV>
25.8735

>  <SCORE.INTER.VDW>
-44.084

>  <SCORE.INTER.norm>
-0.995417

>  <SCORE.INTRA>
-0.453992

>  <SCORE.INTRA.DIHEDRAL>
0.0787505

>  <SCORE.INTRA.DIHEDRAL.0>
4.74153

>  <SCORE.INTRA.POLAR>
0

>  <SCORE.INTRA.POLAR.0>
0

>  <SCORE.INTRA.REPUL>
0

>  <SCORE.INTRA.REPUL.0>
0

>  <SCORE.INTRA.SOLV>
1.08331

>  <SCORE.INTRA.SOLV.lig_0>
-60.4375

>  <SCORE.INTRA.VDW>
-1.03502

>  <SCORE.INTRA.VDW.0>
-1.83689

>  <SCORE.INTRA.norm>
-0.00986939

>  <SCORE.RESTR>
0

>  <SCORE.RESTR.CAVITY>
0

>  <SCORE.RESTR.norm>
0

>  <SCORE.SYSTEM>
0

>  <SCORE.SYSTEM.CONST>
0

>  <SCORE.SYSTEM.DIHEDRAL>
0

>  <SCORE.SYSTEM.SOLV>
0

>  <SCORE.SYSTEM.norm>
0

>  <SCORE.heavy>
46

>  <SCORE.norm>
-1.00529

>  <RMSD>
2.223

$$$$
lig.pdb
 OpenBabel11021811523D
libRbt.so/2013.1/901 2013/11/27
 46 52  0  0  0  0  0  0  0  0999 V2000
  159.5401   41.9233  147.6917 P   0  0  2  0  0  0  0  0  0  0  0  0
  160.6720   41.2825  148.4648 O   0  0  0  0  0  0  0  0  0  0  0  0
  158.2008   41.2353  147.7561 O   0  0  0  0  0  0  0  0  0  0  0  0
  159.9297   42.1257  146.1450 O   0  0  0  0  0  0  0  0  0  0  0  0
  161.2564   41.9178  145.6783 C   0  0  0  0  0  0  0  0  0  0  0  0
  161.4290   42.5463  144.3054 C   0  0  1  0  0  0  0  0  0  0  0  0
  161.3961   41.5061  143.3385 O   0  0  0  0  0  0  0  0  0  0  0  0
  160.3517   43.5426  143.8959 C   0  0  1  0  0  0  0  0  0  0  0  0
  160.8525   44.8656  144.0195 O   0  0  0  0  0  0  0  0  0  0  0  0
  160.1453   43.2539  142.4259 C   0  0  1  0  0  0  0  0  0  0  0  0
  161.0322   44.0615  141.6492 O   0  0  0  0  0  0  0  0  0  0  0  0
  160.5706   41.8277  142.2296 C   0  0  2  0  0  0  0  0  0  0  0  0
  159.3737   40.9541  142.2604 N   0  0  0  0  0  0  0  0  0  0  0  0
  159.0441   40.1118  143.2551 C   0  0  0  0  0  0  0  0  0  0  0  0
  157.8984   39.4514  142.9611 N   0  0  0  0  0  0  0  0  0  0  0  0
  157.4743   39.8693  141.7551 C   0  0  0  0  0  0  0  0  0  0  0  0
  156.3300   39.5757  140.8605 C   0  0  0  0  0  0  0  0  0  0  0  0
  155.4641   38.7325  141.1971 O   0  0  0  0  0  0  0  0  0  0  0  0
  156.2606   40.2366  139.6922 N   0  0  0  0  0  0  0  0  0  0  0  0
  157.1934   41.1395  139.3350 C   0  0  0  0  0  0  0  0  0  0  0  0
  157.0699   41.7777  138.1498 N   0  0  0  0  0  0  0  0  0  0  0  0
  158.2613   41.4540  140.1028 N   0  0  0  0  0  0  0  0  0  0  0  0
  158.4528   40.8624  141.3012 C   0  0  0  0  0  0  0  0  0  0  0  0
  159.9124   46.1866  143.9345 P   0  0  2  0  0  0  0  0  0  0  0  0
  159.0322   46.0908  142.7121 O   0  0  0  0  0  0  0  0  0  0  0  0
  160.8358   47.3729  144.1395 O   0  0  0  0  0  0  0  0  0  0  0  0
  158.9619   46.0188  145.2298 O   0  0  0  0  0  0  0  0  0  0  0  0
  159.4453   46.3777  146.5236 C   0  0  0  0  0  0  0  0  0  0  0  0
  158.6403   45.7471  147.6642 C   0  0  1  0  0  0  0  0  0  0  0  0
  157.3752   46.4038  147.7691 O   0  0  0  0  0  0  0  0  0  0  0  0
  158.3524   44.2559  147.5057 C   0  0  1  0  0  0  0  0  0  0  0  0
  159.3157   43.4445  148.1764 O   0  0  0  0  0  0  0  0  0  0  0  0
  156.9777   44.1240  148.1340 C   0  0  1  0  0  0  0  0  0  0  0  0
  157.0812   43.9181  149.5457 O   0  0  0  0  0  0  0  0  0  0  0  0
  156.3071   45.4646  147.9184 C   0  0  2  0  0  0  0  0  0  0  0  0
  155.5224   45.4299  146.6594 N   0  0  0  0  0  0  0  0  0  0  0  0
  154.6006   44.5024  146.3329 C   0  0  0  0  0  0  0  0  0  0  0  0
  154.0421   44.7487  145.1153 N   0  0  0  0  0  0  0  0  0  0  0  0
  154.6091   45.8686  144.6393 C   0  0  0  0  0  0  0  0  0  0  0  0
  154.4952   46.6848  143.4038 C   0  0  0  0  0  0  0  0  0  0  0  0
  153.6979   46.3997  142.4845 O   0  0  0  0  0  0  0  0  0  0  0  0
  155.2663   47.7693  143.3094 N   0  0  0  0  0  0  0  0  0  0  0  0
  156.1335   48.1213  144.2712 C   0  0  0  0  0  0  0  0  0  0  0  0
  156.8697   49.2236  144.0657 N   0  0  0  0  0  0  0  0  0  0  0  0
  156.3011   47.4254  145.4200 N   0  0  0  0  0  0  0  0  0  0  0  0
  155.5821   46.3087  145.6592 C   0  0  0  0  0  0  0  0  0  0  0  0
  1  3  2  1  0  0  0
  1 32  1  0  0  0  0
  1  2  1  0  0  0  0
  1  4  1  0  0  0  0
  4  5  1  0  0  0  0
  6  5  1  1  0  0  0
  7  6  1  0  0  0  0
  8  6  1  0  0  0  0
  8 10  1  0  0  0  0
  8  9  1  6  0  0  0
 10 11  1  6  0  0  0
 12 13  1  1  0  0  0
 12  7  1  0  0  0  0
 12 10  1  0  0  0  0
 14 13  1  0  0  0  0
 15 16  1  0  0  0  0
 15 14  2  0  0  0  0
 16 23  2  0  0  0  0
 17 16  1  0  0  0  0
 17 19  1  0  0  0  0
 18 17  2  0  0  0  0
 19 20  2  0  0  0  0
 20 22  1  0  0  0  0
 20 21  1  0  0  0  0
 23 13  1  0  0  0  0
 23 22  1  0  0  0  0
 24 25  2  6  0  0  0
 24  9  1  0  0  0  0
 24 26  1  0  0  0  0
 27 28  1  0  0  0  0
 27 24  1  0  0  0  0
 29 30  1  6  0  0  0
 29 28  1  0  0  0  0
 31 32  1  1  0  0  0
 31 29  1  0  0  0  0
 33 34  1  1  0  0  0
 33 35  1  0  0  0  0
 33 31  1  0  0  0  0
 35 36  1  6  0  0  0
 35 30  1  0  0  0  0
 36 37  1  0  0  0  0
 38 37  2  0  0  0  0
 39 38  1  0  0  0  0
 40 41  2  0  0  0  0
 40 39  1  0  0  0  0
 42 40  1  0  0  0  0
 43 42  2  0  0  0  0
 43 45  1  0  0  0  0
 44 43  1  0  0  0  0
 45 46  1  0  0  0  0
 46 39  2  0  0  0  0
 46 36  1  0  0  0  0
M  END
>  <CHROM.1>
7.30527731,167.13496813,158.14276719,43.76832876,144.46157822,-1.76745272
0.86356895,-2.19919140

>  <Name>
lig.pdb

>  <RI>
0

>  <Rbt.Current_Directory>
/home/itssahil/PROJECTS/Mol_Feturizer/New_Systems/rnas/4yb0

>  <Rbt.Executable>
rbdock ($Id: //depot/dev/client3/rdock/2013.1/src/exe/rbdock.cxx#4 $)

>  <Rbt.Library>
libRbt.so (2013.1, Build901 2013/11/27)

>  <Rbt.Parameter_File>
/export/apps/rDock/src/rDock_2013.1_src/data/scripts/dock_solv.prm

>  <Rbt.Receptor>
prm/pocket_docking_6.prm

>  <SCORE>
-46.2764

>  <SCORE.INTER>
-45.8192

>  <SCORE.INTER.CONST>
1

>  <SCORE.INTER.POLAR>
0

>  <SCORE.INTER.ROT>
2

>  <SCORE.INTER.SOLV>
25.86

>  <SCORE.INTER.VDW>
-44.0994

>  <SCORE.INTER.norm>
-0.996069

>  <SCORE.INTRA>
-0.457269

>  <SCORE.INTRA.DIHEDRAL>
0.0792455

>  <SCORE.INTRA.DIHEDRAL.0>
4.74153

>  <SCORE.INTRA.POLAR>
0

>  <SCORE.INTRA.POLAR.0>
0

>  <SCORE.INTRA.REPUL>
0

>  <SCORE.INTRA.REPUL.0>
0

>  <SCORE.INTRA.SOLV>
1.05675

>  <SCORE.INTRA.SOLV.lig_0>
-60.4375

>  <SCORE.INTRA.VDW>
-1.02527

>  <SCORE.INTRA.VDW.0>
-1.83689

>  <SCORE.INTRA.norm>
-0.00994062

>  <SCORE.RESTR>
0

>  <SCORE.RESTR.CAVITY>
0

>  <SCORE.RESTR.norm>
0

>  <SCORE.SYSTEM>
0

>  <SCORE.SYSTEM.CONST>
0

>  <SCORE.SYSTEM.DIHEDRAL>
0

>  <SCORE.SYSTEM.SOLV>
0

>  <SCORE.SYSTEM.norm>
0

>  <SCORE.heavy>
46

>  <SCORE.norm>
-1.00601

>  <RMSD>
2.224

$$$$
lig.pdb
 OpenBabel11021811523D
libRbt.so/2013.1/901 2013/11/27
 46 52  0  0  0  0  0  0  0  0999 V2000
  159.5299   41.9445  147.7676 P   0  0  2  0  0  0  0  0  0  0  0  0
  160.6649   41.3102  148.5418 O   0  0  0  0  0  0  0  0  0  0  0  0
  158.1938   41.2506  147.8336 O   0  0  0  0  0  0  0  0  0  0  0  0
  159.9184   42.1455  146.2204 O   0  0  0  0  0  0  0  0  0  0  0  0
  161.2459   41.9426  145.7539 C   0  0  0  0  0  0  0  0  0  0  0  0
  161.4155   42.5691  144.3797 C   0  0  1  0  0  0  0  0  0  0  0  0
  161.3870   41.5269  143.4149 O   0  0  0  0  0  0  0  0  0  0  0  0
  160.3337   43.5598  143.9685 C   0  0  1  0  0  0  0  0  0  0  0  0
  160.8286   44.8853  144.0894 O   0  0  0  0  0  0  0  0  0  0  0  0
  160.1282   43.2673  142.4991 C   0  0  1  0  0  0  0  0  0  0  0  0
  161.0114   44.0773  141.7206 O   0  0  0  0  0  0  0  0  0  0  0  0
  160.5599   41.8427  142.3055 C   0  0  2  0  0  0  0  0  0  0  0  0
  159.3669   40.9638  142.3383 N   0  0  0  0  0  0  0  0  0  0  0  0
  159.0448   40.1171  143.3316 C   0  0  0  0  0  0  0  0  0  0  0  0
  157.9008   39.4526  143.0401 N   0  0  0  0  0  0  0  0  0  0  0  0
  157.4702   39.8724  141.8371 C   0  0  0  0  0  0  0  0  0  0  0  0
  156.3237   39.5766  140.9460 C   0  0  0  0  0  0  0  0  0  0  0  0
  155.4627   38.7287  141.2833 O   0  0  0  0  0  0  0  0  0  0  0  0
  156.2468   40.2408  139.7801 N   0  0  0  0  0  0  0  0  0  0  0  0
  157.1743   41.1488  139.4220 C   0  0  0  0  0  0  0  0  0  0  0  0
  157.0434   41.7902  138.2393 N   0  0  0  0  0  0  0  0  0  0  0  0
  158.2439   41.4656  140.1866 N   0  0  0  0  0  0  0  0  0  0  0  0
  158.4426   40.8711  141.3825 C   0  0  0  0  0  0  0  0  0  0  0  0
  159.8826   46.2020  144.0020 P   0  0  2  0  0  0  0  0  0  0  0  0
  159.0026   46.0998  142.7800 O   0  0  0  0  0  0  0  0  0  0  0  0
  160.8008   47.3928  144.2045 O   0  0  0  0  0  0  0  0  0  0  0  0
  158.9331   46.0325  145.2978 O   0  0  0  0  0  0  0  0  0  0  0  0
  159.4152   46.3960  146.5908 C   0  0  0  0  0  0  0  0  0  0  0  0
  158.6132   45.7642  147.7328 C   0  0  1  0  0  0  0  0  0  0  0  0
  157.3452   46.4154  147.8366 O   0  0  0  0  0  0  0  0  0  0  0  0
  158.3319   44.2713  147.5772 C   0  0  1  0  0  0  0  0  0  0  0  0
  159.2989   43.4656  148.2494 O   0  0  0  0  0  0  0  0  0  0  0  0
  156.9579   44.1346  148.2061 C   0  0  1  0  0  0  0  0  0  0  0  0
  157.0626   43.9320  149.6182 O   0  0  0  0  0  0  0  0  0  0  0  0
  156.2813   45.4718  147.9880 C   0  0  2  0  0  0  0  0  0  0  0  0
  155.4965   45.4311  146.7292 N   0  0  0  0  0  0  0  0  0  0  0  0
  154.5766   44.5005  146.4060 C   0  0  0  0  0  0  0  0  0  0  0  0
  154.0175   44.7415  145.1876 N   0  0  0  0  0  0  0  0  0  0  0  0
  154.5821   45.8609  144.7077 C   0  0  0  0  0  0  0  0  0  0  0  0
  154.4664   46.6726  143.4694 C   0  0  0  0  0  0  0  0  0  0  0  0
  153.6695   46.3827  142.5512 O   0  0  0  0  0  0  0  0  0  0  0  0
  155.2353   47.7584  143.3712 N   0  0  0  0  0  0  0  0  0  0  0  0
  156.1018   48.1155  144.3316 C   0  0  0  0  0  0  0  0  0  0  0  0
  156.8357   49.2187  144.1223 N   0  0  0  0  0  0  0  0  0  0  0  0
  156.2710   47.4239  145.4829 N   0  0  0  0  0  0  0  0  0  0  0  0
  155.5543   46.3066  145.7260 C   0  0  0  0  0  0  0  0  0  0  0  0
  1  3  2  1  0  0  0
  1 32  1  0  0  0  0
  1  2  1  0  0  0  0
  1  4  1  0  0  0  0
  4  5  1  0  0  0  0
  6  5  1  1  0  0  0
  7  6  1  0  0  0  0
  8  6  1  0  0  0  0
  8 10  1  0  0  0  0
  8  9  1  6  0  0  0
 10 11  1  6  0  0  0
 12 13  1  1  0  0  0
 12  7  1  0  0  0  0
 12 10  1  0  0  0  0
 14 13  1  0  0  0  0
 15 16  1  0  0  0  0
 15 14  2  0  0  0  0
 16 23  2  0  0  0  0
 17 16  1  0  0  0  0
 17 19  1  0  0  0  0
 18 17  2  0  0  0  0
 19 20  2  0  0  0  0
 20 22  1  0  0  0  0
 20 21  1  0  0  0  0
 23 13  1  0  0  0  0
 23 22  1  0  0  0  0
 24 25  2  6  0  0  0
 24  9  1  0  0  0  0
 24 26  1  0  0  0  0
 27 28  1  0  0  0  0
 27 24  1  0  0  0  0
 29 30  1  6  0  0  0
 29 28  1  0  0  0  0
 31 32  1  1  0  0  0
 31 29  1  0  0  0  0
 33 34  1  1  0  0  0
 33 35  1  0  0  0  0
 33 31  1  0  0  0  0
 35 36  1  6  0  0  0
 35 30  1  0  0  0  0
 36 37  1  0  0  0  0
 38 37  2  0  0  0  0
 39 38  1  0  0  0  0
 40 41  2  0  0  0  0
 40 39  1  0  0  0  0
 42 40  1  0  0  0  0
 43 42  2  0  0  0  0
 43 45  1  0  0  0  0
 44 43  1  0  0  0  0
 45 46  1  0  0  0  0
 46 39  2  0  0  0  0
 46 36  1  0  0  0  0
M  END
>  <CHROM.1>
6.94461783,167.29559907,158.12343416,43.77785655,144.53463111,-1.76962947
0.85979794,-2.19874648

>  <Name>
lig.pdb

>  <RI>
0

>  <Rbt.Current_Directory>
/home/itssahil/PROJECTS/Mol_Feturizer/New_Systems/rnas/4yb0

>  <Rbt.Executable>
rbdock ($Id: //depot/dev/client3/rdock/2013.1/src/exe/rbdock.cxx#4 $)

>  <Rbt.Library>
libRbt.so (2013.1, Build901 2013/11/27)

>  <Rbt.Parameter_File>
/export/apps/rDock/src/rDock_2013.1_src/data/scripts/dock_solv.prm

>  <Rbt.Receptor>
prm/pocket_docking_7.prm

>  <SCORE>
-46.3929

>  <SCORE.INTER>
-45.9441

>  <SCORE.INTER.CONST>
1

>  <SCORE.INTER.POLAR>
0

>  <SCORE.INTER.ROT>
2

>  <SCORE.INTER.SOLV>
25.5723

>  <SCORE.INTER.VDW>
-44.0868

>  <SCORE.INTER.norm>
-0.998784

>  <SCORE.INTRA>
-0.448867

>  <SCORE.INTRA.DIHEDRAL>
0.0796562

>  <SCORE.INTRA.DIHEDRAL.0>
4.74153

>  <SCORE.INTRA.POLAR>
0

>  <SCORE.INTRA.POLAR.0>
0

>  <SCORE.INTRA.REPUL>
0

>  <SCORE.INTRA.REPUL.0>
0

>  <SCORE.INTRA.SOLV>
1.08691

>  <SCORE.INTRA.SOLV.lig_0>
-60.4375

>  <SCORE.INTRA.VDW>
-1.03215

>  <SCORE.INTRA.VDW.0>
-1.83689

>  <SCORE.INTRA.norm>
-0.00975797

>  <SCORE.RESTR>
0

>  <SCORE.RESTR.CAVITY>
0

>  <SCORE.RESTR.norm>
0

>  <SCORE.SYSTEM>
0

>  <SCORE.SYSTEM.CONST>
0

>  <SCORE.SYSTEM.DIHEDRAL>
0

>  <SCORE.SYSTEM.SOLV>
0

>  <SCORE.SYSTEM.norm>
0

>  <SCORE.heavy>
46

>  <SCORE.norm>
-1.00854

>  <RMSD>
2.226

$$$$
lig.pdb
 OpenBabel11021811523D
libRbt.so/2013.1/901 2013/11/27
 46 52  0  0  0  0  0  0  0  0999 V2000
  159.5091   41.9200  147.7679 P   0  0  2  0  0  0  0  0  0  0  0  0
  160.6395   41.2798  148.5438 O   0  0  0  0  0  0  0  0  0  0  0  0
  158.1701   41.2313  147.8292 O   0  0  0  0  0  0  0  0  0  0  0  0
  159.9024   42.1223  146.2221 O   0  0  0  0  0  0  0  0  0  0  0  0
  161.2303   41.9150  145.7587 C   0  0  0  0  0  0  0  0  0  0  0  0
  161.4060   42.5434  144.3861 C   0  0  1  0  0  0  0  0  0  0  0  0
  161.3759   41.5030  143.4193 O   0  0  0  0  0  0  0  0  0  0  0  0
  160.3292   43.5391  143.9739 C   0  0  1  0  0  0  0  0  0  0  0  0
  160.8290   44.8624  144.0985 O   0  0  0  0  0  0  0  0  0  0  0  0
  160.1264   43.2502  142.5035 C   0  0  1  0  0  0  0  0  0  0  0  0
  161.0148   44.0581  141.7288 O   0  0  0  0  0  0  0  0  0  0  0  0
  160.5529   41.8242  142.3084 C   0  0  2  0  0  0  0  0  0  0  0  0
  159.3563   40.9500  142.3364 N   0  0  0  0  0  0  0  0  0  0  0  0
  159.0305   40.0996  143.3254 C   0  0  0  0  0  0  0  0  0  0  0  0
  157.8839   39.4412  143.0302 N   0  0  0  0  0  0  0  0  0  0  0  0
  157.4554   39.8688  141.8292 C   0  0  0  0  0  0  0  0  0  0  0  0
  156.3079   39.5821  140.9364 C   0  0  0  0  0  0  0  0  0  0  0  0
  155.4435   38.7360  141.2692 O   0  0  0  0  0  0  0  0  0  0  0  0
  156.2341   40.2524  139.7738 N   0  0  0  0  0  0  0  0  0  0  0  0
  157.1654   41.1585  139.4205 C   0  0  0  0  0  0  0  0  0  0  0  0
  157.0374   41.8063  138.2410 N   0  0  0  0  0  0  0  0  0  0  0  0
  158.2360   41.4671  140.1870 N   0  0  0  0  0  0  0  0  0  0  0  0
  158.4320   40.8658  141.3799 C   0  0  0  0  0  0  0  0  0  0  0  0
  159.8885   46.1830  144.0111 P   0  0  2  0  0  0  0  0  0  0  0  0
  159.0113   46.0865  142.7866 O   0  0  0  0  0  0  0  0  0  0  0  0
  160.8108   47.3697  144.2182 O   0  0  0  0  0  0  0  0  0  0  0  0
  158.9349   46.0149  145.3041 O   0  0  0  0  0  0  0  0  0  0  0  0
  159.4151   46.3741  146.5990 C   0  0  0  0  0  0  0  0  0  0  0  0
  158.6076   45.7434  147.7378 C   0  0  1  0  0  0  0  0  0  0  0  0
  157.3419   46.3994  147.8395 O   0  0  0  0  0  0  0  0  0  0  0  0
  158.3208   44.2519  147.5787 C   0  0  1  0  0  0  0  0  0  0  0  0
  159.2829   43.4411  148.2519 O   0  0  0  0  0  0  0  0  0  0  0  0
  156.9446   44.1195  148.2038 C   0  0  1  0  0  0  0  0  0  0  0  0
  157.0448   43.9139  149.6157 O   0  0  0  0  0  0  0  0  0  0  0  0
  156.2739   45.4598  147.9864 C   0  0  2  0  0  0  0  0  0  0  0  0
  155.4923   45.4245  146.7255 N   0  0  0  0  0  0  0  0  0  0  0  0
  154.5635   44.5030  146.4018 C   0  0  0  0  0  0  0  0  0  0  0  0
  154.0103   44.7470  145.1813 N   0  0  0  0  0  0  0  0  0  0  0  0
  154.5881   45.8593  144.7005 C   0  0  0  0  0  0  0  0  0  0  0  0
  154.4844   46.6694  143.4600 C   0  0  0  0  0  0  0  0  0  0  0  0
  153.6871   46.3859  142.5403 O   0  0  0  0  0  0  0  0  0  0  0  0
  155.2650   47.7467  143.3615 N   0  0  0  0  0  0  0  0  0  0  0  0
  156.1326   48.0969  144.3236 C   0  0  0  0  0  0  0  0  0  0  0  0
  156.8787   49.1917  144.1138 N   0  0  0  0  0  0  0  0  0  0  0  0
  156.2913   47.4062  145.4768 N   0  0  0  0  0  0  0  0  0  0  0  0
  155.5621   46.2970  145.7204 C   0  0  0  0  0  0  0  0  0  0  0  0
  1  3  2  1  0  0  0
  1 32  1  0  0  0  0
  1  2  1  0  0  0  0
  1  4  1  0  0  0  0
  4  5  1  0  0  0  0
  6  5  1  1  0  0  0
  7  6  1  0  0  0  0
  8  6  1  0  0  0  0
  8 10  1  0  0  0  0
  8  9  1  6  0  0  0
 10 11  1  6  0  0  0
 12 13  1  1  0  0  0
 12  7  1  0  0  0  0
 12 10  1  0  0  0  0
 14 13  1  0  0  0  0
 15 16  1  0  0  0  0
 15 14  2  0  0  0  0
 16 23  2  0  0  0  0
 17 16  1  0  0  0  0
 17 19  1  0  0  0  0
 18 17  2  0  0  0  0
 19 20  2  0  0  0  0
 20 22  1  0  0  0  0
 20 21  1  0  0  0  0
 23 13  1  0  0  0  0
 23 22  1  0  0  0  0
 24 25  2  6  0  0  0
 24  9  1  0  0  0  0
 24 26  1  0  0  0  0
 27 28  1  0  0  0  0
 27 24  1  0  0  0  0
 29 30  1  6  0  0  0
 29 28  1  0  0  0  0
 31 32  1  1  0  0  0
 31 29  1  0  0  0  0
 33 34  1  1  0  0  0
 33 35  1  0  0  0  0
 33 31  1  0  0  0  0
 35 36  1  6  0  0  0
 35 30  1  0  0  0  0
 36 37  1  0  0  0  0
 38 37  2  0  0  0  0
 39 38  1  0  0  0  0
 40 41  2  0  0  0  0
 40 39  1  0  0  0  0
 42 40  1  0  0  0  0
 43 42  2  0  0  0  0
 43 45  1  0  0  0  0
 44 43  1  0  0  0  0
 45 46  1  0  0  0  0
 46 39  2  0  0  0  0
 46 36  1  0  0  0  0
M  END
>  <CHROM.1>
6.71939809,167.74278979,158.11941271,43.76446537,144.53419843,-1.76573424
0.86543674,-2.19741614

>  <Name>
lig.pdb

>  <RI>
0

>  <Rbt.Current_Directory>
/home/itssahil/PROJECTS/Mol_Feturizer/New_Systems/rnas/4yb0

>  <Rbt.Executable>
rbdock ($Id: //depot/dev/client3/rdock/2013.1/src/exe/rbdock.cxx#4 $)

>  <Rbt.Library>
libRbt.so (2013.1, Build901 2013/11/27)

>  <Rbt.Parameter_File>
/export/apps/rDock/src/rDock_2013.1_src/data/scripts/dock_solv.prm

>  <Rbt.Receptor>
prm/pocket_docking_5.prm

>  <SCORE>
-46.396

>  <SCORE.INTER>
-45.9613

>  <SCORE.INTER.CONST>
1

>  <SCORE.INTER.POLAR>
0

>  <SCORE.INTER.ROT>
2

>  <SCORE.INTER.SOLV>
25.5745

>  <SCORE.INTER.VDW>
-44.099

>  <SCORE.INTER.norm>
-0.999159

>  <SCORE.INTRA>
-0.434652

>  <SCORE.INTRA.DIHEDRAL>
0.0790632

>  <SCORE.INTRA.DIHEDRAL.0>
4.74153

>  <SCORE.INTRA.POLAR>
0

>  <SCORE.INTRA.POLAR.0>
0

>  <SCORE.INTRA.REPUL>
0

>  <SCORE.INTRA.REPUL.0>
0

>  <SCORE.INTRA.SOLV>
1.16722

>  <SCORE.INTRA.SOLV.lig_0>
-60.4375

>  <SCORE.INTRA.VDW>
-1.05779

>  <SCORE.INTRA.VDW.0>
-1.83689

>  <SCORE.INTRA.norm>
-0.00944895

>  <SCORE.RESTR>
0

>  <SCORE.RESTR.CAVITY>
0

>  <SCORE.RESTR.norm>
0

>  <SCORE.SYSTEM>
0

>  <SCORE.SYSTEM.CONST>
0

>  <SCORE.SYSTEM.DIHEDRAL>
0

>  <SCORE.SYSTEM.SOLV>
0

>  <SCORE.SYSTEM.norm>
0

>  <SCORE.heavy>
46

>  <SCORE.norm>
-1.00861

>  <RMSD>
2.228

$$$$
lig.pdb
 OpenBabel11021811523D
libRbt.so/2013.1/901 2013/11/27
 46 52  0  0  0  0  0  0  0  0999 V2000
  159.5330   41.9388  147.7717 P   0  0  2  0  0  0  0  0  0  0  0  0
  160.6677   41.3036  148.5452 O   0  0  0  0  0  0  0  0  0  0  0  0
  158.1964   41.2458  147.8378 O   0  0  0  0  0  0  0  0  0  0  0  0
  159.9210   42.1401  146.2244 O   0  0  0  0  0  0  0  0  0  0  0  0
  161.2483   41.9365  145.7574 C   0  0  0  0  0  0  0  0  0  0  0  0
  161.4178   42.5634  144.3834 C   0  0  1  0  0  0  0  0  0  0  0  0
  161.3884   41.5215  143.4182 O   0  0  0  0  0  0  0  0  0  0  0  0
  160.3365   43.5549  143.9728 C   0  0  1  0  0  0  0  0  0  0  0  0
  160.8323   44.8801  144.0939 O   0  0  0  0  0  0  0  0  0  0  0  0
  160.1304   43.2631  142.5034 C   0  0  1  0  0  0  0  0  0  0  0  0
  161.0138   44.0727  141.7249 O   0  0  0  0  0  0  0  0  0  0  0  0
  160.5611   41.8382  142.3092 C   0  0  2  0  0  0  0  0  0  0  0  0
  159.3676   40.9601  142.3421 N   0  0  0  0  0  0  0  0  0  0  0  0
  159.0480   40.1093  143.3328 C   0  0  0  0  0  0  0  0  0  0  0  0
  157.9026   39.4469  143.0421 N   0  0  0  0  0  0  0  0  0  0  0  0
  157.4685   39.8722  141.8423 C   0  0  0  0  0  0  0  0  0  0  0  0
  156.3189   39.5810  140.9537 C   0  0  0  0  0  0  0  0  0  0  0  0
  155.4584   38.7323  141.2901 O   0  0  0  0  0  0  0  0  0  0  0  0
  156.2388   40.2502  139.7908 N   0  0  0  0  0  0  0  0  0  0  0  0
  157.1658   41.1591  139.4337 C   0  0  0  0  0  0  0  0  0  0  0  0
  157.0316   41.8056  138.2541 N   0  0  0  0  0  0  0  0  0  0  0  0
  158.2380   41.4718  140.1962 N   0  0  0  0  0  0  0  0  0  0  0  0
  158.4402   40.8721  141.3888 C   0  0  0  0  0  0  0  0  0  0  0  0
  159.8872   46.1974  144.0073 P   0  0  2  0  0  0  0  0  0  0  0  0
  159.0067   46.0961  142.7855 O   0  0  0  0  0  0  0  0  0  0  0  0
  160.8061   47.3875  144.2099 O   0  0  0  0  0  0  0  0  0  0  0  0
  158.9379   46.0281  145.3033 O   0  0  0  0  0  0  0  0  0  0  0  0
  159.4207   46.3909  146.5963 C   0  0  0  0  0  0  0  0  0  0  0  0
  158.6186   45.7591  147.7384 C   0  0  1  0  0  0  0  0  0  0  0  0
  157.3511   46.4111  147.8428 O   0  0  0  0  0  0  0  0  0  0  0  0
  158.3363   44.2665  147.5824 C   0  0  1  0  0  0  0  0  0  0  0  0
  159.3031   43.4599  148.2540 O   0  0  0  0  0  0  0  0  0  0  0  0
  156.9625   44.1304  148.2117 C   0  0  1  0  0  0  0  0  0  0  0  0
  157.0674   43.9273  149.6236 O   0  0  0  0  0  0  0  0  0  0  0  0
  156.2866   45.4682  147.9942 C   0  0  2  0  0  0  0  0  0  0  0  0
  155.5014   45.4283  146.7357 N   0  0  0  0  0  0  0  0  0  0  0  0
  154.5829   44.4969  146.4113 C   0  0  0  0  0  0  0  0  0  0  0  0
  154.0228   44.7390  145.1935 N   0  0  0  0  0  0  0  0  0  0  0  0
  154.5856   45.8601  144.7153 C   0  0  0  0  0  0  0  0  0  0  0  0
  154.4680   46.6738  143.4784 C   0  0  0  0  0  0  0  0  0  0  0  0
  153.6713   46.3842  142.5600 O   0  0  0  0  0  0  0  0  0  0  0  0
  155.2352   47.7609  143.3817 N   0  0  0  0  0  0  0  0  0  0  0  0
  156.1015   48.1178  144.3424 C   0  0  0  0  0  0  0  0  0  0  0  0
  156.8335   49.2225  144.1347 N   0  0  0  0  0  0  0  0  0  0  0  0
  156.2723   47.4245  145.4924 N   0  0  0  0  0  0  0  0  0  0  0  0
  155.5574   46.3056  145.7339 C   0  0  0  0  0  0  0  0  0  0  0  0
  1  3  2  1  0  0  0
  1 32  1  0  0  0  0
  1  2  1  0  0  0  0
  1  4  1  0  0  0  0
  4  5  1  0  0  0  0
  6  5  1  1  0  0  0
  7  6  1  0  0  0  0
  8  6  1  0  0  0  0
  8 10  1  0  0  0  0
  8  9  1  6  0  0  0
 10 11  1  6  0  0  0
 12 13  1  1  0  0  0
 12  7  1  0  0  0  0
 12 10  1  0  0  0  0
 14 13  1  0  0  0  0
 15 16  1  0  0  0  0
 15 14  2  0  0  0  0
 16 23  2  0  0  0  0
 17 16  1  0  0  0  0
 17 19  1  0  0  0  0
 18 17  2  0  0  0  0
 19 20  2  0  0  0  0
 20 22  1  0  0  0  0
 20 21  1  0  0  0  0
 23 13  1  0  0  0  0
 23 22  1  0  0  0  0
 24 25  2  6  0  0  0
 24  9  1  0  0  0  0
 24 26  1  0  0  0  0
 27 28  1  0  0  0  0
 27 24  1  0  0  0  0
 29 30  1  6  0  0  0
 29 28  1  0  0  0  0
 31 32  1  1  0  0  0
 31 29  1  0  0  0  0
 33 34  1  1  0  0  0
 33 35  1  0  0  0  0
 33 31  1  0  0  0  0
 35 36  1  6  0  0  0
 35 30  1  0  0  0  0
 36 37  1  0  0  0  0
 38 37  2  0  0  0  0
 39 38  1  0  0  0  0
 40 41  2  0  0  0  0
 40 39  1  0  0  0  0
 42 40  1  0  0  0  0
 43 42  2  0  0  0  0
 43 45  1  0  0  0  0
 44 43  1  0  0  0  0
 45 46  1  0  0  0  0
 46 39  2  0  0  0  0
 46 36  1  0  0  0  0
M  END
>  <CHROM.1>
6.66509035,167.14609922,158.12520263,43.77571941,144.54073582,-1.76946760
0.85931431,-2.19950859

>  <Name>
lig.pdb

>  <RI>
0

>  <Rbt.Current_Directory>
/home/itssahil/PROJECTS/Mol_Feturizer/New_Systems/rnas/4yb0

>  <Rbt.Executable>
rbdock ($Id: //depot/dev/client3/rdock/2013.1/src/exe/rbdock.cxx#4 $)

>  <Rbt.Library>
libRbt.so (2013.1, Build901 2013/11/27)

>  <Rbt.Parameter_File>
/export/apps/rDock/src/rDock_2013.1_src/data/scripts/dock_solv.prm

>  <Rbt.Receptor>
prm/pocket_docking_6.prm

>  <SCORE>
-46.368

>  <SCORE.INTER>
-45.9184

>  <SCORE.INTER.CONST>
1

>  <SCORE.INTER.POLAR>
0

>  <SCORE.INTER.ROT>
2

>  <SCORE.INTER.SOLV>
25.5521

>  <SCORE.INTER.VDW>
-44.063

>  <SCORE.INTER.norm>
-0.998227

>  <SCORE.INTRA>
-0.44956

>  <SCORE.INTRA.DIHEDRAL>
0.0806412

>  <SCORE.INTRA.DIHEDRAL.0>
4.74153

>  <SCORE.INTRA.POLAR>
0

>  <SCORE.INTRA.POLAR.0>
0

>  <SCORE.INTRA.REPUL>
0

>  <SCORE.INTRA.REPUL.0>
0

>  <SCORE.INTRA.SOLV>
1.06155

>  <SCORE.INTRA.SOLV.lig_0>
-60.4375

>  <SCORE.INTRA.VDW>
-1.02065

>  <SCORE.INTRA.VDW.0>
-1.83689

>  <SCORE.INTRA.norm>
-0.00977304

>  <SCORE.RESTR>
0

>  <SCORE.RESTR.CAVITY>
0

>  <SCORE.RESTR.norm>
0

>  <SCORE.SYSTEM>
0

>  <SCORE.SYSTEM.CONST>
0

>  <SCORE.SYSTEM.DIHEDRAL>
0

>  <SCORE.SYSTEM.SOLV>
0

>  <SCORE.SYSTEM.norm>
0

>  <SCORE.heavy>
46

>  <SCORE.norm>
-1.008

>  <RMSD>
2.228

$$$$
lig.pdb
 OpenBabel11021811523D
libRbt.so/2013.1/901 2013/11/27
 46 52  0  0  0  0  0  0  0  0999 V2000
  159.5131   41.9255  147.7700 P   0  0  2  0  0  0  0  0  0  0  0  0
  160.6426   41.2838  148.5459 O   0  0  0  0  0  0  0  0  0  0  0  0
  158.1739   41.2368  147.8286 O   0  0  0  0  0  0  0  0  0  0  0  0
  159.9079   42.1305  146.2250 O   0  0  0  0  0  0  0  0  0  0  0  0
  161.2363   41.9239  145.7626 C   0  0  0  0  0  0  0  0  0  0  0  0
  161.4135   42.5547  144.3913 C   0  0  1  0  0  0  0  0  0  0  0  0
  161.3843   41.5161  143.4226 O   0  0  0  0  0  0  0  0  0  0  0  0
  160.3372   43.5513  143.9798 C   0  0  1  0  0  0  0  0  0  0  0  0
  160.8371   44.8744  144.1073 O   0  0  0  0  0  0  0  0  0  0  0  0
  160.1359   43.2650  142.5086 C   0  0  1  0  0  0  0  0  0  0  0  0
  161.0252   44.0742  141.7363 O   0  0  0  0  0  0  0  0  0  0  0  0
  160.5625   41.8394  142.3113 C   0  0  2  0  0  0  0  0  0  0  0  0
  159.3658   40.9653  142.3366 N   0  0  0  0  0  0  0  0  0  0  0  0
  159.0391   40.1127  143.3235 C   0  0  0  0  0  0  0  0  0  0  0  0
  157.8927   39.4551  143.0260 N   0  0  0  0  0  0  0  0  0  0  0  0
  157.4651   39.8854  141.8256 C   0  0  0  0  0  0  0  0  0  0  0  0
  156.3183   39.6008  140.9313 C   0  0  0  0  0  0  0  0  0  0  0  0
  155.4534   38.7541  141.2616 O   0  0  0  0  0  0  0  0  0  0  0  0
  156.2454   40.2736  139.7701 N   0  0  0  0  0  0  0  0  0  0  0  0
  157.1771   41.1803  139.4195 C   0  0  0  0  0  0  0  0  0  0  0  0
  157.0501   41.8307  138.2413 N   0  0  0  0  0  0  0  0  0  0  0  0
  158.2471   41.4872  140.1874 N   0  0  0  0  0  0  0  0  0  0  0  0
  158.4421   40.8833  141.3792 C   0  0  0  0  0  0  0  0  0  0  0  0
  159.8968   46.1952  144.0213 P   0  0  2  0  0  0  0  0  0  0  0  0
  159.0208   46.1010  142.7957 O   0  0  0  0  0  0  0  0  0  0  0  0
  160.8190   47.3814  144.2314 O   0  0  0  0  0  0  0  0  0  0  0  0
  158.9419   46.0249  145.3130 O   0  0  0  0  0  0  0  0  0  0  0  0
  159.4207   46.3817  146.6090 C   0  0  0  0  0  0  0  0  0  0  0  0
  158.6120   45.7490  147.7458 C   0  0  1  0  0  0  0  0  0  0  0  0
  157.3463   46.4050  147.8474 O   0  0  0  0  0  0  0  0  0  0  0  0
  158.3252   44.2579  147.5838 C   0  0  1  0  0  0  0  0  0  0  0  0
  159.2865   43.4457  148.2565 O   0  0  0  0  0  0  0  0  0  0  0  0
  156.9484   44.1245  148.2072 C   0  0  1  0  0  0  0  0  0  0  0  0
  157.0471   43.9163  149.6189 O   0  0  0  0  0  0  0  0  0  0  0  0
  156.2781   45.4652  147.9915 C   0  0  2  0  0  0  0  0  0  0  0  0
  155.4977   45.4323  146.7297 N   0  0  0  0  0  0  0  0  0  0  0  0
  154.5771   44.5052  146.3987 C   0  0  0  0  0  0  0  0  0  0  0  0
  154.0228   44.7533  145.1795 N   0  0  0  0  0  0  0  0  0  0  0  0
  154.5914   45.8739  144.7072 C   0  0  0  0  0  0  0  0  0  0  0  0
  154.4817   46.6920  143.4725 C   0  0  0  0  0  0  0  0  0  0  0  0
  153.6875   46.4082  142.5500 O   0  0  0  0  0  0  0  0  0  0  0  0
  155.2530   47.7767  143.3824 N   0  0  0  0  0  0  0  0  0  0  0  0
  156.1168   48.1273  144.3477 C   0  0  0  0  0  0  0  0  0  0  0  0
  156.8536   49.2300  144.1464 N   0  0  0  0  0  0  0  0  0  0  0  0
  156.2806   47.4297  145.4961 N   0  0  0  0  0  0  0  0  0  0  0  0
  155.5608   46.3126  145.7311 C   0  0  0  0  0  0  0  0  0  0  0  0
  1  3  2  1  0  0  0
  1 32  1  0  0  0  0
  1  2  1  0  0  0  0
  1  4  1  0  0  0  0
  4  5  1  0  0  0  0
  6  5  1  1  0  0  0
  7  6  1  0  0  0  0
  8  6  1  0  0  0  0
  8 10  1  0  0  0  0
  8  9  1  6  0  0  0
 10 11  1  6  0  0  0
 12 13  1  1  0  0  0
 12  7  1  0  0  0  0
 12 10  1  0  0  0  0
 14 13  1  0  0  0  0
 15 16  1  0  0  0  0
 15 14  2  0  0  0  0
 16 23  2  0  0  0  0
 17 16  1  0  0  0  0
 17 19  1  0  0  0  0
 18 17  2  0  0  0  0
 19 20  2  0  0  0  0
 20 22  1  0  0  0  0
 20 21  1  0  0  0  0
 23 13  1  0  0  0  0
 23 22  1  0  0  0  0
 24 25  2  6  0  0  0
 24  9  1  0  0  0  0
 24 26  1  0  0  0  0
 27 28  1  0  0  0  0
 27 24  1  0  0  0  0
 29 30  1  6  0  0  0
 29 28  1  0  0  0  0
 31 32  1  1  0  0  0
 31 29  1  0  0  0  0
 33 34  1  1  0  0  0
 33 35  1  0  0  0  0
 33 31  1  0  0  0  0
 35 36  1  6  0  0  0
 35 30  1  0  0  0  0
 36 37  1  0  0  0  0
 38 37  2  0  0  0  0
 39 38  1  0  0  0  0
 40 41  2  0  0  0  0
 40 39  1  0  0  0  0
 42 40  1  0  0  0  0
 43 42  2  0  0  0  0
 43 45  1  0  0  0  0
 44 43  1  0  0  0  0
 45 46  1  0  0  0  0
 46 39  2  0  0  0  0
 46 36  1  0  0  0  0
M  END
>  <CHROM.1>
6.69341315,167.15425089,158.12453449,43.77774867,144.53960556,-1.77124368
0.86448934,-2.19478067

>  <Name>
lig.pdb

>  <RI>
0

>  <Rbt.Current_Directory>
/home/itssahil/PROJECTS/Mol_Feturizer/New_Systems/rnas/4yb0

>  <Rbt.Executable>
rbdock ($Id: //depot/dev/client3/rdock/2013.1/src/exe/rbdock.cxx#4 $)

>  <Rbt.Library>
libRbt.so (2013.1, Build901 2013/11/27)

>  <Rbt.Parameter_File>
/export/apps/rDock/src/rDock_2013.1_src/data/scripts/dock_solv.prm

>  <Rbt.Receptor>
prm/pocket_docking_6.prm

>  <SCORE>
-46.3674

>  <SCORE.INTER>
-45.9177

>  <SCORE.INTER.CONST>
1

>  <SCORE.INTER.POLAR>
0

>  <SCORE.INTER.ROT>
2

>  <SCORE.INTER.SOLV>
25.5484

>  <SCORE.INTER.VDW>
-44.0613

>  <SCORE.INTER.norm>
-0.998211

>  <SCORE.INTRA>
-0.449673

>  <SCORE.INTRA.DIHEDRAL>
0.0805582

>  <SCORE.INTRA.DIHEDRAL.0>
4.74153

>  <SCORE.INTRA.POLAR>
0

>  <SCORE.INTRA.POLAR.0>
0

>  <SCORE.INTRA.REPUL>
0

>  <SCORE.INTRA.REPUL.0>
0

>  <SCORE.INTRA.SOLV>
1.06287

>  <SCORE.INTRA.SOLV.lig_0>
-60.4375

>  <SCORE.INTRA.VDW>
-1.02139

>  <SCORE.INTRA.VDW.0>
-1.83689

>  <SCORE.INTRA.norm>
-0.00977549

>  <SCORE.RESTR>
0

>  <SCORE.RESTR.CAVITY>
0

>  <SCORE.RESTR.norm>
0

>  <SCORE.SYSTEM>
0

>  <SCORE.SYSTEM.CONST>
0

>  <SCORE.SYSTEM.DIHEDRAL>
0

>  <SCORE.SYSTEM.SOLV>
0

>  <SCORE.SYSTEM.norm>
0

>  <SCORE.heavy>
46

>  <SCORE.norm>
-1.00799

>  <RMSD>
2.229

$$$$
lig.pdb
 OpenBabel11021811523D
libRbt.so/2013.1/901 2013/11/27
 46 52  0  0  0  0  0  0  0  0999 V2000
  160.1372   45.8510  143.7021 P   0  0  2  0  0  0  0  0  0  0  0  0
  160.8603   47.1614  143.9249 O   0  0  0  0  0  0  0  0  0  0  0  0
  159.2703   45.7560  142.4731 O   0  0  0  0  0  0  0  0  0  0  0  0
  159.2472   45.4500  144.9797 O   0  0  0  0  0  0  0  0  0  0  0  0
  159.3470   46.1584  146.2082 C   0  0  0  0  0  0  0  0  0  0  0  0
  158.7153   45.3484  147.3283 C   0  0  1  0  0  0  0  0  0  0  0  0
  157.4430   45.9116  147.6145 O   0  0  0  0  0  0  0  0  0  0  0  0
  158.4700   43.8767  147.0204 C   0  0  1  0  0  0  0  0  0  0  0  0
  159.4528   43.0826  147.6685 O   0  0  0  0  0  0  0  0  0  0  0  0
  157.1351   43.5977  147.6739 C   0  0  1  0  0  0  0  0  0  0  0  0
  157.3409   43.1680  149.0212 O   0  0  0  0  0  0  0  0  0  0  0  0
  156.4329   44.9227  147.7422 C   0  0  2  0  0  0  0  0  0  0  0  0
  155.5051   45.0417  146.5924 N   0  0  0  0  0  0  0  0  0  0  0  0
  154.2899   44.4734  146.5043 C   0  0  0  0  0  0  0  0  0  0  0  0
  153.7101   44.7683  145.3160 N   0  0  0  0  0  0  0  0  0  0  0  0
  154.5611   45.5410  144.6177 C   0  0  0  0  0  0  0  0  0  0  0  0
  154.5668   46.2013  143.2911 C   0  0  0  0  0  0  0  0  0  0  0  0
  153.5839   46.0814  142.5206 O   0  0  0  0  0  0  0  0  0  0  0  0
  155.6509   46.9196  142.9518 N   0  0  0  0  0  0  0  0  0  0  0  0
  156.7039   47.0440  143.7818 C   0  0  0  0  0  0  0  0  0  0  0  0
  157.7656   47.7831  143.3896 N   0  0  0  0  0  0  0  0  0  0  0  0
  156.7638   46.4683  145.0040 N   0  0  0  0  0  0  0  0  0  0  0  0
  155.7420   45.7179  145.4686 C   0  0  0  0  0  0  0  0  0  0  0  0
  159.6749   41.5054  147.3535 P   0  0  2  0  0  0  0  0  0  0  0  0
  158.3421   40.7984  147.3994 O   0  0  0  0  0  0  0  0  0  0  0  0
  160.8254   41.0589  148.2361 O   0  0  0  0  0  0  0  0  0  0  0  0
  160.1595   41.5251  145.8127 O   0  0  0  0  0  0  0  0  0  0  0  0
  161.5147   41.8372  145.4926 C   0  0  0  0  0  0  0  0  0  0  0  0
  161.7066   42.2651  144.0343 C   0  0  1  0  0  0  0  0  0  0  0  0
  161.5927   41.1199  143.1868 O   0  0  0  0  0  0  0  0  0  0  0  0
  160.7002   43.2943  143.5242 C   0  0  1  0  0  0  0  0  0  0  0  0
  161.1884   44.6304  143.6369 O   0  0  0  0  0  0  0  0  0  0  0  0
  160.5266   42.8844  142.0737 C   0  0  1  0  0  0  0  0  0  0  0  0
  161.5203   43.4992  141.2489 O   0  0  0  0  0  0  0  0  0  0  0  0
  160.7739   41.3905  142.0460 C   0  0  2  0  0  0  0  0  0  0  0  0
  159.4851   40.6715  142.2019 N   0  0  0  0  0  0  0  0  0  0  0  0
  159.1247   39.9257  143.2651 C   0  0  0  0  0  0  0  0  0  0  0  0
  157.8751   39.4038  143.1187 N   0  0  0  0  0  0  0  0  0  0  0  0
  157.4067   39.8257  141.9334 C   0  0  0  0  0  0  0  0  0  0  0  0
  156.1610   39.6394  141.1465 C   0  0  0  0  0  0  0  0  0  0  0  0
  155.1997   38.9598  141.5661 O   0  0  0  0  0  0  0  0  0  0  0  0
  156.0833   40.2509  139.9634 N   0  0  0  0  0  0  0  0  0  0  0  0
  157.0850   40.9962  139.4716 C   0  0  0  0  0  0  0  0  0  0  0  0
  156.9051   41.5541  138.2650 N   0  0  0  0  0  0  0  0  0  0  0  0
  158.2527   41.2058  140.1234 N   0  0  0  0  0  0  0  0  0  0  0  0
  158.4716   40.6566  141.3366 C   0  0  0  0  0  0  0  0  0  0  0  0
  1  3  2  6  0  0  0
  1 32  1  0  0  0  0
  1  2  1  0  0  0  0
  1  4  1  0  0  0  0
  4  5  1  0  0  0  0
  6  5  1  6  0  0  0
  7  6  1  0  0  0  0
  8  6  1  0  0  0  0
  8 10  1  0  0  0  0
  8  9  1  1  0  0  0
 10 11  1  1  0  0  0
 12 13  1  6  0  0  0
 12  7  1  0  0  0  0
 12 10  1  0  0  0  0
 14 13  1  0  0  0  0
 15 16  1  0  0  0  0
 15 14  2  0  0  0  0
 16 23  2  0  0  0  0
 17 16  1  0  0  0  0
 17 19  1  0  0  0  0
 18 17  2  0  0  0  0
 19 20  2  0  0  0  0
 20 22  1  0  0  0  0
 20 21  1  0  0  0  0
 23 13  1  0  0  0  0
 23 22  1  0  0  0  0
 24 25  2  1  0  0  0
 24  9  1  0  0  0  0
 24 26  1  0  0  0  0
 27 28  1  0  0  0  0
 27 24  1  0  0  0  0
 29 30  1  6  0  0  0
 29 28  1  0  0  0  0
 31 32  1  6  0  0  0
 31 29  1  0  0  0  0
 33 34  1  6  0  0  0
 33 35  1  0  0  0  0
 33 31  1  0  0  0  0
 35 36  1  1  0  0  0
 35 30  1  0  0  0  0
 36 37  1  0  0  0  0
 38 37  2  0  0  0  0
 39 38  1  0  0  0  0
 40 41  2  0  0  0  0
 40 39  1  0  0  0  0
 42 40  1  0  0  0  0
 43 42  2  0  0  0  0
 43 45  1  0  0  0  0
 44 43  1  0  0  0  0
 45 46  1  0  0  0  0
 46 39  2  0  0  0  0
 46 36  1  0  0  0  0
M  END
>  <CHROM.1>
-165.52063106,2.22447354,158.27239639,43.39901343,144.27997856,-1.79073369
0.69989193,-2.17473837

>  <Name>
lig.pdb

>  <RI>
0

>  <Rbt.Current_Directory>
/home/itssahil/PROJECTS/Mol_Feturizer/New_Systems/rnas/4yb0

>  <Rbt.Executable>
rbdock ($Id: //depot/dev/client3/rdock/2013.1/src/exe/rbdock.cxx#4 $)

>  <Rbt.Library>
libRbt.so (2013.1, Build901 2013/11/27)

>  <Rbt.Parameter_File>
/export/apps/rDock/src/rDock_2013.1_src/data/scripts/dock_solv.prm

>  <Rbt.Receptor>
prm/pocket_docking_3.prm

>  <SCORE>
-47.2075

>  <SCORE.INTER>
-47.7241

>  <SCORE.INTER.CONST>
1

>  <SCORE.INTER.POLAR>
0

>  <SCORE.INTER.ROT>
2

>  <SCORE.INTER.SOLV>
27.177

>  <SCORE.INTER.VDW>
-45.8084

>  <SCORE.INTER.norm>
-1.03748

>  <SCORE.INTRA>
0.513149

>  <SCORE.INTRA.DIHEDRAL>
0.0960487

>  <SCORE.INTRA.DIHEDRAL.0>
4.74153

>  <SCORE.INTRA.POLAR>
0

>  <SCORE.INTRA.POLAR.0>
0

>  <SCORE.INTRA.REPUL>
0

>  <SCORE.INTRA.REPUL.0>
0

>  <SCORE.INTRA.SOLV>
3.78573

>  <SCORE.INTRA.SOLV.lig_0>
-60.4375

>  <SCORE.INTRA.VDW>
-1.42774

>  <SCORE.INTRA.VDW.0>
-1.83689

>  <SCORE.INTRA.norm>
0.0111554

>  <SCORE.RESTR>
0.00340314

>  <SCORE.RESTR.CAVITY>
0.00340314

>  <SCORE.RESTR.norm>
7.39813e-05

>  <SCORE.SYSTEM>
0

>  <SCORE.SYSTEM.CONST>
0

>  <SCORE.SYSTEM.DIHEDRAL>
0

>  <SCORE.SYSTEM.SOLV>
0

>  <SCORE.SYSTEM.norm>
0

>  <SCORE.heavy>
46

>  <SCORE.norm>
-1.02625

>  <RMSD>
2.230

$$$$
lig.pdb
 OpenBabel11021811523D
libRbt.so/2013.1/901 2013/11/27
 46 52  0  0  0  0  0  0  0  0999 V2000
  160.1528   45.9341  143.7696 P   0  0  2  0  0  0  0  0  0  0  0  0
  160.8732   47.2386  144.0321 O   0  0  0  0  0  0  0  0  0  0  0  0
  159.2907   45.8726  142.5351 O   0  0  0  0  0  0  0  0  0  0  0  0
  159.2585   45.4961  145.0320 O   0  0  0  0  0  0  0  0  0  0  0  0
  159.3526   46.1697  146.2803 C   0  0  0  0  0  0  0  0  0  0  0  0
  158.7178   45.3276  147.3747 C   0  0  1  0  0  0  0  0  0  0  0  0
  157.4436   45.8809  147.6718 O   0  0  0  0  0  0  0  0  0  0  0  0
  158.4758   43.8648  147.0245 C   0  0  1  0  0  0  0  0  0  0  0  0
  159.4572   43.0541  147.6538 O   0  0  0  0  0  0  0  0  0  0  0  0
  157.1388   43.5659  147.6648 C   0  0  1  0  0  0  0  0  0  0  0  0
  157.3401   43.0986  149.0002 O   0  0  0  0  0  0  0  0  0  0  0  0
  156.4344   44.8875  147.7677 C   0  0  2  0  0  0  0  0  0  0  0  0
  155.5108   45.0376  146.6182 N   0  0  0  0  0  0  0  0  0  0  0  0
  154.3555   44.3712  146.4493 C   0  0  0  0  0  0  0  0  0  0  0  0
  153.7622   44.7318  145.2861 N   0  0  0  0  0  0  0  0  0  0  0  0
  154.5434   45.6478  144.6864 C   0  0  0  0  0  0  0  0  0  0  0  0
  154.4997   46.4389  143.4342 C   0  0  0  0  0  0  0  0  0  0  0  0
  153.5402   46.3083  142.6366 O   0  0  0  0  0  0  0  0  0  0  0  0
  155.5146   47.2858  143.1907 N   0  0  0  0  0  0  0  0  0  0  0  0
  156.5430   47.4211  144.0492 C   0  0  0  0  0  0  0  0  0  0  0  0
  157.5341   48.2919  143.7549 N   0  0  0  0  0  0  0  0  0  0  0  0
  156.6450   46.7308  145.2076 N   0  0  0  0  0  0  0  0  0  0  0  0
  155.6939   45.8450  145.5736 C   0  0  0  0  0  0  0  0  0  0  0  0
  159.6827   41.4867  147.2953 P   0  0  2  0  0  0  0  0  0  0  0  0
  158.3508   40.7769  147.3161 O   0  0  0  0  0  0  0  0  0  0  0  0
  160.8304   41.0170  148.1693 O   0  0  0  0  0  0  0  0  0  0  0  0
  160.1731   41.5505  145.7575 O   0  0  0  0  0  0  0  0  0  0  0  0
  161.5291   41.8731  145.4515 C   0  0  0  0  0  0  0  0  0  0  0  0
  161.7259   42.3423  144.0066 C   0  0  1  0  0  0  0  0  0  0  0  0
  161.6168   41.2213  143.1267 O   0  0  0  0  0  0  0  0  0  0  0  0
  160.7200   43.3841  143.5219 C   0  0  1  0  0  0  0  0  0  0  0  0
  161.2059   44.7171  143.6741 O   0  0  0  0  0  0  0  0  0  0  0  0
  160.5525   43.0151  142.0598 C   0  0  1  0  0  0  0  0  0  0  0  0
  161.5484   43.6541  141.2564 O   0  0  0  0  0  0  0  0  0  0  0  0
  160.8020   41.5229  141.9908 C   0  0  2  0  0  0  0  0  0  0  0  0
  159.5137   40.7981  142.1216 N   0  0  0  0  0  0  0  0  0  0  0  0
  159.1397   40.0429  143.1734 C   0  0  0  0  0  0  0  0  0  0  0  0
  157.8945   39.5177  143.0038 N   0  0  0  0  0  0  0  0  0  0  0  0
  157.4427   39.9469  141.8147 C   0  0  0  0  0  0  0  0  0  0  0  0
  156.2100   39.7622  141.0074 C   0  0  0  0  0  0  0  0  0  0  0  0
  155.2448   39.0760  141.4070 O   0  0  0  0  0  0  0  0  0  0  0  0
  156.1481   40.3824  139.8279 N   0  0  0  0  0  0  0  0  0  0  0  0
  157.1545   41.1351  139.3572 C   0  0  0  0  0  0  0  0  0  0  0  0
  156.9910   41.7014  138.1523 N   0  0  0  0  0  0  0  0  0  0  0  0
  158.3112   41.3438  140.0285 N   0  0  0  0  0  0  0  0  0  0  0  0
  158.5136   40.7861  141.2406 C   0  0  0  0  0  0  0  0  0  0  0  0
  1  3  2  6  0  0  0
  1 32  1  0  0  0  0
  1  2  1  0  0  0  0
  1  4  1  0  0  0  0
  4  5  1  0  0  0  0
  6  5  1  6  0  0  0
  7  6  1  0  0  0  0
  8  6  1  0  0  0  0
  8 10  1  0  0  0  0
  8  9  1  1  0  0  0
 10 11  1  1  0  0  0
 12 13  1  6  0  0  0
 12  7  1  0  0  0  0
 12 10  1  0  0  0  0
 14 13  1  0  0  0  0
 15 16  1  0  0  0  0
 15 14  2  0  0  0  0
 16 23  2  0  0  0  0
 17 16  1  0  0  0  0
 17 19  1  0  0  0  0
 18 17  2  0  0  0  0
 19 20  2  0  0  0  0
 20 22  1  0  0  0  0
 20 21  1  0  0  0  0
 23 13  1  0  0  0  0
 23 22  1  0  0  0  0
 24 25  2  1  0  0  0
 24  9  1  0  0  0  0
 24 26  1  0  0  0  0
 27 28  1  0  0  0  0
 27 24  1  0  0  0  0
 29 30  1  6  0  0  0
 29 28  1  0  0  0  0
 31 32  1  6  0  0  0
 31 29  1  0  0  0  0
 33 34  1  6  0  0  0
 33 35  1  0  0  0  0
 33 31  1  0  0  0  0
 35 36  1  1  0  0  0
 35 30  1  0  0  0  0
 36 37  1  0  0  0  0
 38 37  2  0  0  0  0
 39 38  1  0  0  0  0
 40 41  2  0  0  0  0
 40 39  1  0  0  0  0
 42 40  1  0  0  0  0
 43 42  2  0  0  0  0
 43 45  1  0  0  0  0
 44 43  1  0  0  0  0
 45 46  1  0  0  0  0
 46 39  2  0  0  0  0
 46 36  1  0  0  0  0
M  END
>  <CHROM.1>
-172.34847489,3.58304134,158.27565969,43.48751914,144.28463551,-1.84967809
0.71634214,-2.15780771

>  <Name>
lig.pdb

>  <RI>
0

>  <Rbt.Current_Directory>
/home/itssahil/PROJECTS/Mol_Feturizer/New_Systems/rnas/4yb0

>  <Rbt.Executable>
rbdock ($Id: //depot/dev/client3/rdock/2013.1/src/exe/rbdock.cxx#4 $)

>  <Rbt.Library>
libRbt.so (2013.1, Build901 2013/11/27)

>  <Rbt.Parameter_File>
/export/apps/rDock/src/rDock_2013.1_src/data/scripts/dock_solv.prm

>  <Rbt.Receptor>
prm/pocket_docking_4.prm

>  <SCORE>
-47.687

>  <SCORE.INTER>
-47.5622

>  <SCORE.INTER.CONST>
1

>  <SCORE.INTER.POLAR>
0

>  <SCORE.INTER.ROT>
2

>  <SCORE.INTER.SOLV>
26.6849

>  <SCORE.INTER.VDW>
-45.5364

>  <SCORE.INTER.norm>
-1.03396

>  <SCORE.INTRA>
-0.124852

>  <SCORE.INTRA.DIHEDRAL>
0.0868382

>  <SCORE.INTRA.DIHEDRAL.0>
4.74153

>  <SCORE.INTRA.POLAR>
0

>  <SCORE.INTRA.POLAR.0>
0

>  <SCORE.INTRA.REPUL>
0

>  <SCORE.INTRA.REPUL.0>
0

>  <SCORE.INTRA.SOLV>
2.87705

>  <SCORE.INTRA.SOLV.lig_0>
-60.4375

>  <SCORE.INTRA.VDW>
-1.60679

>  <SCORE.INTRA.VDW.0>
-1.83689

>  <SCORE.INTRA.norm>
-0.00271417

>  <SCORE.RESTR>
0

>  <SCORE.RESTR.CAVITY>
0

>  <SCORE.RESTR.norm>
0

>  <SCORE.SYSTEM>
0

>  <SCORE.SYSTEM.CONST>
0

>  <SCORE.SYSTEM.DIHEDRAL>
0

>  <SCORE.SYSTEM.SOLV>
0

>  <SCORE.SYSTEM.norm>
0

>  <SCORE.heavy>
46

>  <SCORE.norm>
-1.03667

>  <RMSD>
2.232

$$$$
lig.pdb
 OpenBabel11021811523D
libRbt.so/2013.1/901 2013/11/27
 46 52  0  0  0  0  0  0  0  0999 V2000
  159.5546   41.9316  147.7535 P   0  0  2  0  0  0  0  0  0  0  0  0
  160.6904   41.2927  148.5224 O   0  0  0  0  0  0  0  0  0  0  0  0
  158.2175   41.2396  147.8201 O   0  0  0  0  0  0  0  0  0  0  0  0
  159.9395   42.1378  146.2061 O   0  0  0  0  0  0  0  0  0  0  0  0
  161.2655   41.9346  145.7355 C   0  0  0  0  0  0  0  0  0  0  0  0
  161.4327   42.5661  144.3633 C   0  0  1  0  0  0  0  0  0  0  0  0
  161.4002   41.5275  143.3946 O   0  0  0  0  0  0  0  0  0  0  0  0
  160.3515   43.5600  143.9585 C   0  0  1  0  0  0  0  0  0  0  0  0
  160.8489   44.8843  144.0831 O   0  0  0  0  0  0  0  0  0  0  0  0
  160.1420   43.2734  142.4885 C   0  0  1  0  0  0  0  0  0  0  0  0
  161.0245   44.0849  141.7109 O   0  0  0  0  0  0  0  0  0  0  0  0
  160.5709   41.8488  142.2885 C   0  0  2  0  0  0  0  0  0  0  0  0
  159.3766   40.9718  142.3209 N   0  0  0  0  0  0  0  0  0  0  0  0
  159.0565   40.1204  143.3110 C   0  0  0  0  0  0  0  0  0  0  0  0
  157.9104   39.4593  143.0200 N   0  0  0  0  0  0  0  0  0  0  0  0
  157.4763   39.8860  141.8207 C   0  0  0  0  0  0  0  0  0  0  0  0
  156.3262   39.5966  140.9321 C   0  0  0  0  0  0  0  0  0  0  0  0
  155.4651   38.7484  141.2681 O   0  0  0  0  0  0  0  0  0  0  0  0
  156.2464   40.2670  139.7699 N   0  0  0  0  0  0  0  0  0  0  0  0
  157.1742   41.1753  139.4133 C   0  0  0  0  0  0  0  0  0  0  0  0
  157.0402   41.8229  138.2344 N   0  0  0  0  0  0  0  0  0  0  0  0
  158.2469   41.4864  140.1757 N   0  0  0  0  0  0  0  0  0  0  0  0
  158.4488   40.8854  141.3678 C   0  0  0  0  0  0  0  0  0  0  0  0
  159.9048   46.2028  144.0030 P   0  0  2  0  0  0  0  0  0  0  0  0
  159.0216   46.1066  142.7828 O   0  0  0  0  0  0  0  0  0  0  0  0
  160.8253   47.3913  144.2078 O   0  0  0  0  0  0  0  0  0  0  0  0
  158.9582   46.0299  145.3005 O   0  0  0  0  0  0  0  0  0  0  0  0
  159.4440   46.3878  146.5937 C   0  0  0  0  0  0  0  0  0  0  0  0
  158.6439   45.7529  147.7353 C   0  0  1  0  0  0  0  0  0  0  0  0
  157.3771   46.4057  147.8447 O   0  0  0  0  0  0  0  0  0  0  0  0
  158.3598   44.2611  147.5748 C   0  0  1  0  0  0  0  0  0  0  0  0
  159.3272   43.4513  148.2415 O   0  0  0  0  0  0  0  0  0  0  0  0
  156.9871   44.1242  148.2066 C   0  0  1  0  0  0  0  0  0  0  0  0
  157.0949   43.9160  149.6176 O   0  0  0  0  0  0  0  0  0  0  0  0
  156.3121   45.4633  147.9952 C   0  0  2  0  0  0  0  0  0  0  0  0
  155.5242   45.4285  146.7382 N   0  0  0  0  0  0  0  0  0  0  0  0
  154.6038   44.4993  146.4127 C   0  0  0  0  0  0  0  0  0  0  0  0
  154.0415   44.7461  145.1969 N   0  0  0  0  0  0  0  0  0  0  0  0
  154.6045   45.8681  144.7212 C   0  0  0  0  0  0  0  0  0  0  0  0
  154.4853   46.6860  143.4873 C   0  0  0  0  0  0  0  0  0  0  0  0
  153.6862   46.4004  142.5697 O   0  0  0  0  0  0  0  0  0  0  0  0
  155.2536   47.7725  143.3925 N   0  0  0  0  0  0  0  0  0  0  0  0
  156.1224   48.1252  144.3526 C   0  0  0  0  0  0  0  0  0  0  0  0
  156.8553   49.2296  144.1469 N   0  0  0  0  0  0  0  0  0  0  0  0
  156.2948   47.4279  145.4999 N   0  0  0  0  0  0  0  0  0  0  0  0
  155.5791   46.3090  145.7392 C   0  0  0  0  0  0  0  0  0  0  0  0
  1  3  2  1  0  0  0
  1 32  1  0  0  0  0
  1  2  1  0  0  0  0
  1  4  1  0  0  0  0
  4  5  1  0  0  0  0
  6  5  1  1  0  0  0
  7  6  1  0  0  0  0
  8  6  1  0  0  0  0
  8 10  1  0  0  0  0
  8  9  1  6  0  0  0
 10 11  1  6  0  0  0
 12 13  1  1  0  0  0
 12  7  1  0  0  0  0
 12 10  1  0  0  0  0
 14 13  1  0  0  0  0
 15 16  1  0  0  0  0
 15 14  2  0  0  0  0
 16 23  2  0  0  0  0
 17 16  1  0  0  0  0
 17 19  1  0  0  0  0
 18 17  2  0  0  0  0
 19 20  2  0  0  0  0
 20 22  1  0  0  0  0
 20 21  1  0  0  0  0
 23 13  1  0  0  0  0
 23 22  1  0  0  0  0
 24 25  2  6  0  0  0
 24  9  1  0  0  0  0
 24 26  1  0  0  0  0
 27 28  1  0  0  0  0
 27 24  1  0  0  0  0
 29 30  1  6  0  0  0
 29 28  1  0  0  0  0
 31 32  1  1  0  0  0
 31 29  1  0  0  0  0
 33 34  1  1  0  0  0
 33 35  1  0  0  0  0
 33 31  1  0  0  0  0
 35 36  1  6  0  0  0
 35 30  1  0  0  0  0
 36 37  1  0  0  0  0
 38 37  2  0  0  0  0
 39 38  1  0  0  0  0
 40 41  2  0  0  0  0
 40 39  1  0  0  0  0
 42 40  1  0  0  0  0
 43 42  2  0  0  0  0
 43 45  1  0  0  0  0
 44 43  1  0  0  0  0
 45 46  1  0  0  0  0
 46 39  2  0  0  0  0
 46 36  1  0  0  0  0
M  END
>  <CHROM.1>
6.84724239,167.16287223,158.14221808,43.78020293,144.53145000,-1.76600247
0.85913063,-2.19850751

>  <Name>
lig.pdb

>  <RI>
0

>  <Rbt.Current_Directory>
/home/itssahil/PROJECTS/Mol_Feturizer/New_Systems/rnas/4yb0

>  <Rbt.Executable>
rbdock ($Id: //depot/dev/client3/rdock/2013.1/src/exe/rbdock.cxx#4 $)

>  <Rbt.Library>
libRbt.so (2013.1, Build901 2013/11/27)

>  <Rbt.Parameter_File>
/export/apps/rDock/src/rDock_2013.1_src/data/scripts/dock_solv.prm

>  <Rbt.Receptor>
prm/pocket_docking_7.prm

>  <SCORE>
-46.3346

>  <SCORE.INTER>
-45.8833

>  <SCORE.INTER.CONST>
1

>  <SCORE.INTER.POLAR>
0

>  <SCORE.INTER.ROT>
2

>  <SCORE.INTER.SOLV>
25.4816

>  <SCORE.INTER.VDW>
-44.0161

>  <SCORE.INTER.norm>
-0.997464

>  <SCORE.INTRA>
-0.451226

>  <SCORE.INTRA.DIHEDRAL>
0.080194

>  <SCORE.INTRA.DIHEDRAL.0>
4.74153

>  <SCORE.INTRA.POLAR>
0

>  <SCORE.INTRA.POLAR.0>
0

>  <SCORE.INTRA.REPUL>
0

>  <SCORE.INTRA.REPUL.0>
0

>  <SCORE.INTRA.SOLV>
1.06373

>  <SCORE.INTRA.SOLV.lig_0>
-60.4375

>  <SCORE.INTRA.VDW>
-1.02319

>  <SCORE.INTRA.VDW.0>
-1.83689

>  <SCORE.INTRA.norm>
-0.00980925

>  <SCORE.RESTR>
0

>  <SCORE.RESTR.CAVITY>
0

>  <SCORE.RESTR.norm>
0

>  <SCORE.SYSTEM>
0

>  <SCORE.SYSTEM.CONST>
0

>  <SCORE.SYSTEM.DIHEDRAL>
0

>  <SCORE.SYSTEM.SOLV>
0

>  <SCORE.SYSTEM.norm>
0

>  <SCORE.heavy>
46

>  <SCORE.norm>
-1.00727

>  <RMSD>
2.235

$$$$
lig.pdb
 OpenBabel11021811523D
libRbt.so/2013.1/901 2013/11/27
 46 52  0  0  0  0  0  0  0  0999 V2000
  160.1912   45.8854  143.7713 P   0  0  2  0  0  0  0  0  0  0  0  0
  160.9147   47.1870  144.0396 O   0  0  0  0  0  0  0  0  0  0  0  0
  159.3444   45.8251  142.5261 O   0  0  0  0  0  0  0  0  0  0  0  0
  159.2790   45.4548  145.0233 O   0  0  0  0  0  0  0  0  0  0  0  0
  159.3607   46.1311  146.2712 C   0  0  0  0  0  0  0  0  0  0  0  0
  158.7082   45.2947  147.3595 C   0  0  1  0  0  0  0  0  0  0  0  0
  157.4331   45.8550  147.6392 O   0  0  0  0  0  0  0  0  0  0  0  0
  158.4634   43.8323  147.0098 C   0  0  1  0  0  0  0  0  0  0  0  0
  159.4329   43.0183  147.6533 O   0  0  0  0  0  0  0  0  0  0  0  0
  157.1171   43.5414  147.6340 C   0  0  1  0  0  0  0  0  0  0  0  0
  157.2993   43.0765  148.9729 O   0  0  0  0  0  0  0  0  0  0  0  0
  156.4179   44.8667  147.7248 C   0  0  2  0  0  0  0  0  0  0  0  0
  155.5096   45.0184  146.5635 N   0  0  0  0  0  0  0  0  0  0  0  0
  154.2936   44.4583  146.4415 C   0  0  0  0  0  0  0  0  0  0  0  0
  153.7346   44.7852  145.2516 N   0  0  0  0  0  0  0  0  0  0  0  0
  154.6002   45.5709  144.5866 C   0  0  0  0  0  0  0  0  0  0  0  0
  154.6304   46.2639  143.2771 C   0  0  0  0  0  0  0  0  0  0  0  0
  153.6598   46.1678  142.4880 O   0  0  0  0  0  0  0  0  0  0  0  0
  155.7230   46.9853  142.9735 N   0  0  0  0  0  0  0  0  0  0  0  0
  156.7628   47.0841  143.8232 C   0  0  0  0  0  0  0  0  0  0  0  0
  157.8340   47.8277  143.4669 N   0  0  0  0  0  0  0  0  0  0  0  0
  156.8002   46.4781  145.0316 N   0  0  0  0  0  0  0  0  0  0  0  0
  155.7678   45.7212  145.4607 C   0  0  0  0  0  0  0  0  0  0  0  0
  159.6552   41.4490  147.3014 P   0  0  2  0  0  0  0  0  0  0  0  0
  158.3197   40.7458  147.3073 O   0  0  0  0  0  0  0  0  0  0  0  0
  160.7896   40.9759  148.1910 O   0  0  0  0  0  0  0  0  0  0  0  0
  160.1652   41.5066  145.7698 O   0  0  0  0  0  0  0  0  0  0  0  0
  161.5265   41.8220  145.4801 C   0  0  0  0  0  0  0  0  0  0  0  0
  161.7437   42.2866  144.0366 C   0  0  1  0  0  0  0  0  0  0  0  0
  161.6403   41.1640  143.1581 O   0  0  0  0  0  0  0  0  0  0  0  0
  160.7491   43.3321  143.5368 C   0  0  1  0  0  0  0  0  0  0  0  0
  161.2395   44.6631  143.6919 O   0  0  0  0  0  0  0  0  0  0  0  0
  160.5981   42.9602  142.0736 C   0  0  1  0  0  0  0  0  0  0  0  0
  161.6072   43.5925  141.2813 O   0  0  0  0  0  0  0  0  0  0  0  0
  160.8412   41.4667  142.0114 C   0  0  2  0  0  0  0  0  0  0  0  0
  159.5478   40.7485  142.1277 N   0  0  0  0  0  0  0  0  0  0  0  0
  159.1622   39.9874  143.1710 C   0  0  0  0  0  0  0  0  0  0  0  0
  157.9151   39.4709  142.9889 N   0  0  0  0  0  0  0  0  0  0  0  0
  157.4742   39.9119  141.8000 C   0  0  0  0  0  0  0  0  0  0  0  0
  156.2460   39.7406  140.9828 C   0  0  0  0  0  0  0  0  0  0  0  0
  155.2741   39.0569  141.3705 O   0  0  0  0  0  0  0  0  0  0  0  0
  156.1959   40.3701  139.8077 N   0  0  0  0  0  0  0  0  0  0  0  0
  157.2099   41.1204  139.3498 C   0  0  0  0  0  0  0  0  0  0  0  0
  157.0580   41.6970  138.1482 N   0  0  0  0  0  0  0  0  0  0  0  0
  158.3631   41.3173  140.0306 N   0  0  0  0  0  0  0  0  0  0  0  0
  158.5538   40.7491  141.2398 C   0  0  0  0  0  0  0  0  0  0  0  0
  1  3  2  6  0  0  0
  1 32  1  0  0  0  0
  1  2  1  0  0  0  0
  1  4  1  0  0  0  0
  4  5  1  0  0  0  0
  6  5  1  6  0  0  0
  7  6  1  0  0  0  0
  8  6  1  0  0  0  0
  8 10  1  0  0  0  0
  8  9  1  1  0  0  0
 10 11  1  1  0  0  0
 12 13  1  6  0  0  0
 12  7  1  0  0  0  0
 12 10  1  0  0  0  0
 14 13  1  0  0  0  0
 15 16  1  0  0  0  0
 15 14  2  0  0  0  0
 16 23  2  0  0  0  0
 17 16  1  0  0  0  0
 17 19  1  0  0  0  0
 18 17  2  0  0  0  0
 19 20  2  0  0  0  0
 20 22  1  0  0  0  0
 20 21  1  0  0  0  0
 23 13  1  0  0  0  0
 23 22  1  0  0  0  0
 24 25  2  1  0  0  0
 24  9  1  0  0  0  0
 24 26  1  0  0  0  0
 27 28  1  0  0  0  0
 27 24  1  0  0  0  0
 29 30  1  6  0  0  0
 29 28  1  0  0  0  0
 31 32  1  6  0  0  0
 31 29  1  0  0  0  0
 33 34  1  6  0  0  0
 33 35  1  0  0  0  0
 33 31  1  0  0  0  0
 35 36  1  1  0  0  0
 35 30  1  0  0  0  0
 36 37  1  0  0  0  0
 38 37  2  0  0  0  0
 39 38  1  0  0  0  0
 40 41  2  0  0  0  0
 40 39  1  0  0  0  0
 42 40  1  0  0  0  0
 43 42  2  0  0  0  0
 43 45  1  0  0  0  0
 44 43  1  0  0  0  0
 45 46  1  0  0  0  0
 46 39  2  0  0  0  0
 46 36  1  0  0  0  0
M  END
>  <CHROM.1>
-165.43510724,2.91677861,158.31119085,43.42260189,144.25320798,-1.80377579
0.71168697,-2.13964018

>  <Name>
lig.pdb

>  <RI>
0

>  <Rbt.Current_Directory>
/home/itssahil/PROJECTS/Mol_Feturizer/New_Systems/rnas/4yb0

>  <Rbt.Executable>
rbdock ($Id: //depot/dev/client3/rdock/2013.1/src/exe/rbdock.cxx#4 $)

>  <Rbt.Library>
libRbt.so (2013.1, Build901 2013/11/27)

>  <Rbt.Parameter_File>
/export/apps/rDock/src/rDock_2013.1_src/data/scripts/dock_solv.prm

>  <Rbt.Receptor>
prm/pocket_docking_3.prm

>  <SCORE>
-47.2015

>  <SCORE.INTER>
-47.7361

>  <SCORE.INTER.CONST>
1

>  <SCORE.INTER.POLAR>
0

>  <SCORE.INTER.ROT>
2

>  <SCORE.INTER.SOLV>
27.1909

>  <SCORE.INTER.VDW>
-45.8211

>  <SCORE.INTER.norm>
-1.03774

>  <SCORE.INTRA>
0.53299

>  <SCORE.INTRA.DIHEDRAL>
0.0983603

>  <SCORE.INTRA.DIHEDRAL.0>
4.74153

>  <SCORE.INTRA.POLAR>
0

>  <SCORE.INTRA.POLAR.0>
0

>  <SCORE.INTRA.REPUL>
0

>  <SCORE.INTRA.REPUL.0>
0

>  <SCORE.INTRA.SOLV>
3.79881

>  <SCORE.INTRA.SOLV.lig_0>
-60.4375

>  <SCORE.INTRA.VDW>
-1.41559

>  <SCORE.INTRA.VDW.0>
-1.83689

>  <SCORE.INTRA.norm>
0.0115867

>  <SCORE.RESTR>
0.00160283

>  <SCORE.RESTR.CAVITY>
0.00160283

>  <SCORE.RESTR.norm>
3.48442e-05

>  <SCORE.SYSTEM>
0

>  <SCORE.SYSTEM.CONST>
0

>  <SCORE.SYSTEM.DIHEDRAL>
0

>  <SCORE.SYSTEM.SOLV>
0

>  <SCORE.SYSTEM.norm>
0

>  <SCORE.heavy>
46

>  <SCORE.norm>
-1.02612

>  <RMSD>
2.236

$$$$
lig.pdb
 OpenBabel11021811523D
libRbt.so/2013.1/901 2013/11/27
 46 52  0  0  0  0  0  0  0  0999 V2000
  160.1665   45.8571  143.7245 P   0  0  2  0  0  0  0  0  0  0  0  0
  160.8955   47.1619  143.9603 O   0  0  0  0  0  0  0  0  0  0  0  0
  159.2965   45.7793  142.4964 O   0  0  0  0  0  0  0  0  0  0  0  0
  159.2776   45.4455  144.9995 O   0  0  0  0  0  0  0  0  0  0  0  0
  159.3830   46.1398  146.2356 C   0  0  0  0  0  0  0  0  0  0  0  0
  158.7504   45.3200  147.3480 C   0  0  1  0  0  0  0  0  0  0  0  0
  157.4811   45.8853  147.6433 O   0  0  0  0  0  0  0  0  0  0  0  0
  158.4983   43.8528  147.0244 C   0  0  1  0  0  0  0  0  0  0  0  0
  159.4793   43.0475  147.6614 O   0  0  0  0  0  0  0  0  0  0  0  0
  157.1637   43.5722  147.6777 C   0  0  1  0  0  0  0  0  0  0  0  0
  157.3707   43.1266  149.0196 O   0  0  0  0  0  0  0  0  0  0  0  0
  156.4671   44.8992  147.7622 C   0  0  2  0  0  0  0  0  0  0  0  0
  155.5373   45.0348  146.6160 N   0  0  0  0  0  0  0  0  0  0  0  0
  154.3186   44.4745  146.5253 C   0  0  0  0  0  0  0  0  0  0  0  0
  153.7378   44.7843  145.3413 N   0  0  0  0  0  0  0  0  0  0  0  0
  154.5916   45.5588  144.6485 C   0  0  0  0  0  0  0  0  0  0  0  0
  154.5980   46.2320  143.3283 C   0  0  0  0  0  0  0  0  0  0  0  0
  153.6127   46.1253  142.5591 O   0  0  0  0  0  0  0  0  0  0  0  0
  155.6855   46.9473  142.9935 N   0  0  0  0  0  0  0  0  0  0  0  0
  156.7411   47.0574  143.8220 C   0  0  0  0  0  0  0  0  0  0  0  0
  157.8062   47.7941  143.4346 N   0  0  0  0  0  0  0  0  0  0  0  0
  156.8006   46.4695  145.0385 N   0  0  0  0  0  0  0  0  0  0  0  0
  155.7755   45.7205  145.4982 C   0  0  0  0  0  0  0  0  0  0  0  0
  159.6941   41.4730  147.3284 P   0  0  2  0  0  0  0  0  0  0  0  0
  158.3585   40.7711  147.3694 O   0  0  0  0  0  0  0  0  0  0  0  0
  160.8446   41.0120  148.2034 O   0  0  0  0  0  0  0  0  0  0  0  0
  160.1754   41.5079  145.7868 O   0  0  0  0  0  0  0  0  0  0  0  0
  161.5312   41.8179  145.4672 C   0  0  0  0  0  0  0  0  0  0  0  0
  161.7216   42.2612  144.0133 C   0  0  1  0  0  0  0  0  0  0  0  0
  161.6012   41.1260  143.1534 O   0  0  0  0  0  0  0  0  0  0  0  0
  160.7185   43.3001  143.5170 C   0  0  1  0  0  0  0  0  0  0  0  0
  161.2124   44.6329  143.6434 O   0  0  0  0  0  0  0  0  0  0  0  0
  160.5399   42.9071  142.0624 C   0  0  1  0  0  0  0  0  0  0  0  0
  161.5344   43.5269  141.2422 O   0  0  0  0  0  0  0  0  0  0  0  0
  160.7810   41.4127  142.0175 C   0  0  2  0  0  0  0  0  0  0  0  0
  159.4896   40.6973  142.1683 N   0  0  0  0  0  0  0  0  0  0  0  0
  159.1220   39.9542  143.2310 C   0  0  0  0  0  0  0  0  0  0  0  0
  157.8718   39.4354  143.0793 N   0  0  0  0  0  0  0  0  0  0  0  0
  157.4103   39.8564  141.8910 C   0  0  0  0  0  0  0  0  0  0  0  0
  156.1680   39.6721  141.0982 C   0  0  0  0  0  0  0  0  0  0  0  0
  155.2029   38.9957  141.5143 O   0  0  0  0  0  0  0  0  0  0  0  0
  156.0977   40.2817  139.9137 N   0  0  0  0  0  0  0  0  0  0  0  0
  157.1038   41.0236  139.4256 C   0  0  0  0  0  0  0  0  0  0  0  0
  156.9313   41.5798  138.2172 N   0  0  0  0  0  0  0  0  0  0  0  0
  158.2688   41.2312  140.0828 N   0  0  0  0  0  0  0  0  0  0  0  0
  158.4803   40.6835  141.2980 C   0  0  0  0  0  0  0  0  0  0  0  0
  1  3  2  6  0  0  0
  1 32  1  0  0  0  0
  1  2  1  0  0  0  0
  1  4  1  0  0  0  0
  4  5  1  0  0  0  0
  6  5  1  6  0  0  0
  7  6  1  0  0  0  0
  8  6  1  0  0  0  0
  8 10  1  0  0  0  0
  8  9  1  1  0  0  0
 10 11  1  1  0  0  0
 12 13  1  6  0  0  0
 12  7  1  0  0  0  0
 12 10  1  0  0  0  0
 14 13  1  0  0  0  0
 15 16  1  0  0  0  0
 15 14  2  0  0  0  0
 16 23  2  0  0  0  0
 17 16  1  0  0  0  0
 17 19  1  0  0  0  0
 18 17  2  0  0  0  0
 19 20  2  0  0  0  0
 20 22  1  0  0  0  0
 20 21  1  0  0  0  0
 23 13  1  0  0  0  0
 23 22  1  0  0  0  0
 24 25  2  1  0  0  0
 24  9  1  0  0  0  0
 24 26  1  0  0  0  0
 27 28  1  0  0  0  0
 27 24  1  0  0  0  0
 29 30  1  6  0  0  0
 29 28  1  0  0  0  0
 31 32  1  6  0  0  0
 31 29  1  0  0  0  0
 33 34  1  6  0  0  0
 33 35  1  0  0  0  0
 33 31  1  0  0  0  0
 35 36  1  1  0  0  0
 35 30  1  0  0  0  0
 36 37  1  0  0  0  0
 38 37  2  0  0  0  0
 39 38  1  0  0  0  0
 40 41  2  0  0  0  0
 40 39  1  0  0  0  0
 42 40  1  0  0  0  0
 43 42  2  0  0  0  0
 43 45  1  0  0  0  0
 44 43  1  0  0  0  0
 45 46  1  0  0  0  0
 46 39  2  0  0  0  0
 46 36  1  0  0  0  0
M  END
>  <CHROM.1>
-165.39614708,3.06997546,158.29480406,43.40225657,144.27687414,-1.78207525
0.70189481,-2.16799222

>  <Name>
lig.pdb

>  <RI>
0

>  <Rbt.Current_Directory>
/home/itssahil/PROJECTS/Mol_Feturizer/New_Systems/rnas/4yb0

>  <Rbt.Executable>
rbdock ($Id: //depot/dev/client3/rdock/2013.1/src/exe/rbdock.cxx#4 $)

>  <Rbt.Library>
libRbt.so (2013.1, Build901 2013/11/27)

>  <Rbt.Parameter_File>
/export/apps/rDock/src/rDock_2013.1_src/data/scripts/dock_solv.prm

>  <Rbt.Receptor>
prm/pocket_docking_3.prm

>  <SCORE>
-47.1986

>  <SCORE.INTER>
-47.741

>  <SCORE.INTER.CONST>
1

>  <SCORE.INTER.POLAR>
0

>  <SCORE.INTER.ROT>
2

>  <SCORE.INTER.SOLV>
27.1411

>  <SCORE.INTER.VDW>
-45.8077

>  <SCORE.INTER.norm>
-1.03785

>  <SCORE.INTRA>
0.542434

>  <SCORE.INTRA.DIHEDRAL>
0.0989046

>  <SCORE.INTRA.DIHEDRAL.0>
4.74153

>  <SCORE.INTRA.POLAR>
0

>  <SCORE.INTRA.POLAR.0>
0

>  <SCORE.INTRA.REPUL>
0

>  <SCORE.INTRA.REPUL.0>
0

>  <SCORE.INTRA.SOLV>
3.8041

>  <SCORE.INTRA.SOLV.lig_0>
-60.4375

>  <SCORE.INTRA.VDW>
-1.40907

>  <SCORE.INTRA.VDW.0>
-1.83689

>  <SCORE.INTRA.norm>
0.011792

>  <SCORE.RESTR>
0

>  <SCORE.RESTR.CAVITY>
0

>  <SCORE.RESTR.norm>
0

>  <SCORE.SYSTEM>
0

>  <SCORE.SYSTEM.CONST>
0

>  <SCORE.SYSTEM.DIHEDRAL>
0

>  <SCORE.SYSTEM.SOLV>
0

>  <SCORE.SYSTEM.norm>
0

>  <SCORE.heavy>
46

>  <SCORE.norm>
-1.02606

>  <RMSD>
2.246

$$$$
lig.pdb
 OpenBabel11021811523D
libRbt.so/2013.1/901 2013/11/27
 46 52  0  0  0  0  0  0  0  0999 V2000
  159.5308   41.8128  147.6981 P   0  0  2  0  0  0  0  0  0  0  0  0
  160.6457   41.1430  148.4715 O   0  0  0  0  0  0  0  0  0  0  0  0
  158.1765   41.1542  147.7543 O   0  0  0  0  0  0  0  0  0  0  0  0
  159.9301   42.0147  146.1538 O   0  0  0  0  0  0  0  0  0  0  0  0
  161.2535   41.7801  145.6905 C   0  0  0  0  0  0  0  0  0  0  0  0
  161.4448   42.4119  144.3215 C   0  0  1  0  0  0  0  0  0  0  0  0
  161.3923   41.3778  143.3490 O   0  0  0  0  0  0  0  0  0  0  0  0
  160.3912   43.4339  143.9139 C   0  0  1  0  0  0  0  0  0  0  0  0
  160.9206   44.7449  144.0462 O   0  0  0  0  0  0  0  0  0  0  0  0
  160.1835   43.1577  142.4416 C   0  0  1  0  0  0  0  0  0  0  0  0
  161.0906   43.9496  141.6723 O   0  0  0  0  0  0  0  0  0  0  0  0
  160.5779   41.7236  142.2390 C   0  0  2  0  0  0  0  0  0  0  0  0
  159.3619   40.8765  142.2612 N   0  0  0  0  0  0  0  0  0  0  0  0
  159.0041   40.0454  143.2555 C   0  0  0  0  0  0  0  0  0  0  0  0
  157.8471   39.4091  142.9526 N   0  0  0  0  0  0  0  0  0  0  0  0
  157.4442   39.8315  141.7410 C   0  0  0  0  0  0  0  0  0  0  0  0
  156.3027   39.5595  140.8361 C   0  0  0  0  0  0  0  0  0  0  0  0
  155.4152   38.7368  141.1671 O   0  0  0  0  0  0  0  0  0  0  0  0
  156.2592   40.2173  139.6648 N   0  0  0  0  0  0  0  0  0  0  0  0
  157.2151   41.0982  139.3136 C   0  0  0  0  0  0  0  0  0  0  0  0
  157.1173   41.7344  138.1249 N   0  0  0  0  0  0  0  0  0  0  0  0
  158.2820   41.3923  140.0908 N   0  0  0  0  0  0  0  0  0  0  0  0
  158.4487   40.8012  141.2932 C   0  0  0  0  0  0  0  0  0  0  0  0
  160.0102   46.0868  143.9653 P   0  0  2  0  0  0  0  0  0  0  0  0
  159.1323   46.0169  142.7395 O   0  0  0  0  0  0  0  0  0  0  0  0
  160.9588   47.2513  144.1798 O   0  0  0  0  0  0  0  0  0  0  0  0
  159.0518   45.9332  145.2565 O   0  0  0  0  0  0  0  0  0  0  0  0
  159.5385   46.2743  146.5538 C   0  0  0  0  0  0  0  0  0  0  0  0
  158.7158   45.6557  147.6883 C   0  0  1  0  0  0  0  0  0  0  0  0
  157.4652   46.3395  147.7925 O   0  0  0  0  0  0  0  0  0  0  0  0
  158.3956   44.1720  147.5207 C   0  0  1  0  0  0  0  0  0  0  0  0
  159.3385   43.3359  148.1903 O   0  0  0  0  0  0  0  0  0  0  0  0
  157.0162   44.0672  148.1438 C   0  0  1  0  0  0  0  0  0  0  0  0
  157.1102   43.8515  149.5546 O   0  0  0  0  0  0  0  0  0  0  0  0
  156.3761   45.4234  147.9332 C   0  0  2  0  0  0  0  0  0  0  0  0
  155.5951   45.4127  146.6714 N   0  0  0  0  0  0  0  0  0  0  0  0
  154.7016   44.4715  146.3078 C   0  0  0  0  0  0  0  0  0  0  0  0
  154.1384   44.7466  145.0985 N   0  0  0  0  0  0  0  0  0  0  0  0
  154.6733   45.8996  144.6663 C   0  0  0  0  0  0  0  0  0  0  0  0
  154.5379   46.7576  143.4616 C   0  0  0  0  0  0  0  0  0  0  0  0
  153.7510   46.4838  142.5300 O   0  0  0  0  0  0  0  0  0  0  0  0
  155.2772   47.8669  143.4100 N   0  0  0  0  0  0  0  0  0  0  0  0
  156.1318   48.2080  144.3868 C   0  0  0  0  0  0  0  0  0  0  0  0
  156.8357   49.3382  144.2247 N   0  0  0  0  0  0  0  0  0  0  0  0
  156.3175   47.4750  145.5095 N   0  0  0  0  0  0  0  0  0  0  0  0
  155.6310   46.3296  145.7047 C   0  0  0  0  0  0  0  0  0  0  0  0
  1  3  2  1  0  0  0
  1 32  1  0  0  0  0
  1  2  1  0  0  0  0
  1  4  1  0  0  0  0
  4  5  1  0  0  0  0
  6  5  1  1  0  0  0
  7  6  1  0  0  0  0
  8  6  1  0  0  0  0
  8 10  1  0  0  0  0
  8  9  1  6  0  0  0
 10 11  1  6  0  0  0
 12 13  1  1  0  0  0
 12  7  1  0  0  0  0
 12 10  1  0  0  0  0
 14 13  1  0  0  0  0
 15 16  1  0  0  0  0
 15 14  2  0  0  0  0
 16 23  2  0  0  0  0
 17 16  1  0  0  0  0
 17 19  1  0  0  0  0
 18 17  2  0  0  0  0
 19 20  2  0  0  0  0
 20 22  1  0  0  0  0
 20 21  1  0  0  0  0
 23 13  1  0  0  0  0
 23 22  1  0  0  0  0
 24 25  2  6  0  0  0
 24  9  1  0  0  0  0
 24 26  1  0  0  0  0
 27 28  1  0  0  0  0
 27 24  1  0  0  0  0
 29 30  1  6  0  0  0
 29 28  1  0  0  0  0
 31 32  1  1  0  0  0
 31 29  1  0  0  0  0
 33 34  1  1  0  0  0
 33 35  1  0  0  0  0
 33 31  1  0  0  0  0
 35 36  1  6  0  0  0
 35 30  1  0  0  0  0
 36 37  1  0  0  0  0
 38 37  2  0  0  0  0
 39 38  1  0  0  0  0
 40 41  2  0  0  0  0
 40 39  1  0  0  0  0
 42 40  1  0  0  0  0
 43 42  2  0  0  0  0
 43 45  1  0  0  0  0
 44 43  1  0  0  0  0
 45 46  1  0  0  0  0
 46 39  2  0  0  0  0
 46 36  1  0  0  0  0
M  END
>  <CHROM.1>
7.94721888,163.67198546,158.17401724,43.71269132,144.48017553,-1.77748206
0.87379568,-2.20497069

>  <Name>
lig.pdb

>  <RI>
0

>  <Rbt.Current_Directory>
/home/itssahil/PROJECTS/Mol_Feturizer/New_Systems/rnas/4yb0

>  <Rbt.Executable>
rbdock ($Id: //depot/dev/client3/rdock/2013.1/src/exe/rbdock.cxx#4 $)

>  <Rbt.Library>
libRbt.so (2013.1, Build901 2013/11/27)

>  <Rbt.Parameter_File>
/export/apps/rDock/src/rDock_2013.1_src/data/scripts/dock_solv.prm

>  <Rbt.Receptor>
prm/pocket_docking_5.prm

>  <SCORE>
-46.2933

>  <SCORE.INTER>
-45.8522

>  <SCORE.INTER.CONST>
1

>  <SCORE.INTER.POLAR>
0

>  <SCORE.INTER.ROT>
2

>  <SCORE.INTER.SOLV>
26.0767

>  <SCORE.INTER.VDW>
-44.1937

>  <SCORE.INTER.norm>
-0.996788

>  <SCORE.INTRA>
-0.441024

>  <SCORE.INTRA.DIHEDRAL>
0.0855002

>  <SCORE.INTRA.DIHEDRAL.0>
4.74153

>  <SCORE.INTRA.POLAR>
0

>  <SCORE.INTRA.POLAR.0>
0

>  <SCORE.INTRA.REPUL>
0

>  <SCORE.INTRA.REPUL.0>
0

>  <SCORE.INTRA.SOLV>
0.483951

>  <SCORE.INTRA.SOLV.lig_0>
-60.4375

>  <SCORE.INTRA.VDW>
-0.72575

>  <SCORE.INTRA.VDW.0>
-1.83689

>  <SCORE.INTRA.norm>
-0.00958749

>  <SCORE.RESTR>
0

>  <SCORE.RESTR.CAVITY>
0

>  <SCORE.RESTR.norm>
0

>  <SCORE.SYSTEM>
0

>  <SCORE.SYSTEM.CONST>
0

>  <SCORE.SYSTEM.DIHEDRAL>
0

>  <SCORE.SYSTEM.SOLV>
0

>  <SCORE.SYSTEM.norm>
0

>  <SCORE.heavy>
46

>  <SCORE.norm>
-1.00638

>  <RMSD>
2.250

$$$$
lig.pdb
 OpenBabel11021811523D
libRbt.so/2013.1/901 2013/11/27
 46 52  0  0  0  0  0  0  0  0999 V2000
  160.3322   45.8714  143.9916 P   0  0  2  0  0  0  0  0  0  0  0  0
  161.0990   47.1360  144.3114 O   0  0  0  0  0  0  0  0  0  0  0  0
  159.4806   45.8915  142.7484 O   0  0  0  0  0  0  0  0  0  0  0  0
  159.4096   45.4188  145.2281 O   0  0  0  0  0  0  0  0  0  0  0  0
  159.5170   46.0388  146.5029 C   0  0  0  0  0  0  0  0  0  0  0  0
  158.8400   45.1793  147.5578 C   0  0  1  0  0  0  0  0  0  0  0  0
  157.5849   45.7689  147.8660 O   0  0  0  0  0  0  0  0  0  0  0  0
  158.5461   43.7417  147.1480 C   0  0  1  0  0  0  0  0  0  0  0  0
  159.4898   42.8699  147.7527 O   0  0  0  0  0  0  0  0  0  0  0  0
  157.1925   43.4693  147.7648 C   0  0  1  0  0  0  0  0  0  0  0  0
  157.3628   42.9426  149.0822 O   0  0  0  0  0  0  0  0  0  0  0  0
  156.5378   44.8119  147.9140 C   0  0  2  0  0  0  0  0  0  0  0  0
  155.6319   45.0423  146.7638 N   0  0  0  0  0  0  0  0  0  0  0  0
  154.5519   44.3028  146.4567 C   0  0  0  0  0  0  0  0  0  0  0  0
  153.9543   44.7734  145.3357 N   0  0  0  0  0  0  0  0  0  0  0  0
  154.6561   45.8366  144.9045 C   0  0  0  0  0  0  0  0  0  0  0  0
  154.5652   46.7955  143.7784 C   0  0  0  0  0  0  0  0  0  0  0  0
  153.6426   46.6944  142.9343 O   0  0  0  0  0  0  0  0  0  0  0  0
  155.4977   47.7602  143.6983 N   0  0  0  0  0  0  0  0  0  0  0  0
  156.4869   47.8635  144.6060 C   0  0  0  0  0  0  0  0  0  0  0  0
  157.3946   48.8569  144.4780 N   0  0  0  0  0  0  0  0  0  0  0  0
  156.6281   47.0229  145.6559 N   0  0  0  0  0  0  0  0  0  0  0  0
  155.7601   46.0080  145.8541 C   0  0  0  0  0  0  0  0  0  0  0  0
  159.6592   41.3103  147.3344 P   0  0  2  0  0  0  0  0  0  0  0  0
  158.3011   40.6518  147.3160 O   0  0  0  0  0  0  0  0  0  0  0  0
  160.7796   40.7630  148.1986 O   0  0  0  0  0  0  0  0  0  0  0  0
  160.1667   41.4155  145.8044 O   0  0  0  0  0  0  0  0  0  0  0  0
  161.5369   41.6978  145.5228 C   0  0  0  0  0  0  0  0  0  0  0  0
  161.7655   42.2155  144.0992 C   0  0  1  0  0  0  0  0  0  0  0  0
  161.6227   41.1349  143.1748 O   0  0  0  0  0  0  0  0  0  0  0  0
  160.8047   43.3132  143.6478 C   0  0  1  0  0  0  0  0  0  0  0  0
  161.3393   44.6197  143.8567 O   0  0  0  0  0  0  0  0  0  0  0  0
  160.6377   43.0085  142.1709 C   0  0  1  0  0  0  0  0  0  0  0  0
  161.6650   43.6400  141.4017 O   0  0  0  0  0  0  0  0  0  0  0  0
  160.8310   41.5118  142.0450 C   0  0  2  0  0  0  0  0  0  0  0  0
  159.5149   40.8323  142.1362 N   0  0  0  0  0  0  0  0  0  0  0  0
  159.0835   40.0905  143.1755 C   0  0  0  0  0  0  0  0  0  0  0  0
  157.8264   39.6090  142.9681 N   0  0  0  0  0  0  0  0  0  0  0  0
  157.4258   40.0538  141.7664 C   0  0  0  0  0  0  0  0  0  0  0  0
  156.2121   39.9121  140.9222 C   0  0  0  0  0  0  0  0  0  0  0  0
  155.2121   39.2599  141.2920 O   0  0  0  0  0  0  0  0  0  0  0  0
  156.2074   40.5341  139.7421 N   0  0  0  0  0  0  0  0  0  0  0  0
  157.2530   41.2513  139.3026 C   0  0  0  0  0  0  0  0  0  0  0  0
  157.1456   41.8230  138.0939 N   0  0  0  0  0  0  0  0  0  0  0  0
  158.3957   41.4196  140.0085 N   0  0  0  0  0  0  0  0  0  0  0  0
  158.5420   40.8552  141.2256 C   0  0  0  0  0  0  0  0  0  0  0  0
  1  3  2  6  0  0  0
  1 32  1  0  0  0  0
  1  2  1  0  0  0  0
  1  4  1  0  0  0  0
  4  5  1  0  0  0  0
  6  5  1  6  0  0  0
  7  6  1  0  0  0  0
  8  6  1  0  0  0  0
  8 10  1  0  0  0  0
  8  9  1  1  0  0  0
 10 11  1  1  0  0  0
 12 13  1  6  0  0  0
 12  7  1  0  0  0  0
 12 10  1  0  0  0  0
 14 13  1  0  0  0  0
 15 16  1  0  0  0  0
 15 14  2  0  0  0  0
 16 23  2  0  0  0  0
 17 16  1  0  0  0  0
 17 19  1  0  0  0  0
 18 17  2  0  0  0  0
 19 20  2  0  0  0  0
 20 22  1  0  0  0  0
 20 21  1  0  0  0  0
 23 13  1  0  0  0  0
 23 22  1  0  0  0  0
 24 25  2  1  0  0  0
 24  9  1  0  0  0  0
 24 26  1  0  0  0  0
 27 28  1  0  0  0  0
 27 24  1  0  0  0  0
 29 30  1  6  0  0  0
 29 28  1  0  0  0  0
 31 32  1  6  0  0  0
 31 29  1  0  0  0  0
 33 34  1  6  0  0  0
 33 35  1  0  0  0  0
 33 31  1  0  0  0  0
 35 36  1  1  0  0  0
 35 30  1  0  0  0  0
 36 37  1  0  0  0  0
 38 37  2  0  0  0  0
 39 38  1  0  0  0  0
 40 41  2  0  0  0  0
 40 39  1  0  0  0  0
 42 40  1  0  0  0  0
 43 42  2  0  0  0  0
 43 45  1  0  0  0  0
 44 43  1  0  0  0  0
 45 46  1  0  0  0  0
 46 39  2  0  0  0  0
 46 36  1  0  0  0  0
M  END
>  <CHROM.1>
177.73196682,6.12206658,158.33630621,43.50581040,144.41653351,-1.89894070
0.75643887,-2.14766467

>  <Name>
lig.pdb

>  <RI>
0

>  <Rbt.Current_Directory>
/home/itssahil/PROJECTS/Mol_Feturizer/New_Systems/rnas/4yb0

>  <Rbt.Executable>
rbdock ($Id: //depot/dev/client3/rdock/2013.1/src/exe/rbdock.cxx#4 $)

>  <Rbt.Library>
libRbt.so (2013.1, Build901 2013/11/27)

>  <Rbt.Parameter_File>
/export/apps/rDock/src/rDock_2013.1_src/data/scripts/dock_solv.prm

>  <Rbt.Receptor>
prm/pocket_docking_3.prm

>  <SCORE>
-46.6685

>  <SCORE.INTER>
-46.4047

>  <SCORE.INTER.CONST>
1

>  <SCORE.INTER.POLAR>
0

>  <SCORE.INTER.ROT>
2

>  <SCORE.INTER.SOLV>
26.6459

>  <SCORE.INTER.VDW>
-44.7518

>  <SCORE.INTER.norm>
-1.0088

>  <SCORE.INTRA>
-0.263838

>  <SCORE.INTRA.DIHEDRAL>
0.0713987

>  <SCORE.INTRA.DIHEDRAL.0>
4.74153

>  <SCORE.INTRA.POLAR>
0

>  <SCORE.INTRA.POLAR.0>
0

>  <SCORE.INTRA.REPUL>
0

>  <SCORE.INTRA.REPUL.0>
0

>  <SCORE.INTRA.SOLV>
1.37885

>  <SCORE.INTRA.SOLV.lig_0>
-60.4375

>  <SCORE.INTRA.VDW>
-0.988965

>  <SCORE.INTRA.VDW.0>
-1.83689

>  <SCORE.INTRA.norm>
-0.00573562

>  <SCORE.RESTR>
0

>  <SCORE.RESTR.CAVITY>
0

>  <SCORE.RESTR.norm>
0

>  <SCORE.SYSTEM>
0

>  <SCORE.SYSTEM.CONST>
0

>  <SCORE.SYSTEM.DIHEDRAL>
0

>  <SCORE.SYSTEM.SOLV>
0

>  <SCORE.SYSTEM.norm>
0

>  <SCORE.heavy>
46

>  <SCORE.norm>
-1.01453

>  <RMSD>
2.320

$$$$
lig.pdb
 OpenBabel11021811523D
libRbt.so/2013.1/901 2013/11/27
 46 52  0  0  0  0  0  0  0  0999 V2000
  160.3454   45.8381  143.9743 P   0  0  2  0  0  0  0  0  0  0  0  0
  161.1110   47.1060  144.2838 O   0  0  0  0  0  0  0  0  0  0  0  0
  159.4890   45.8493  142.7344 O   0  0  0  0  0  0  0  0  0  0  0  0
  159.4283   45.3910  145.2170 O   0  0  0  0  0  0  0  0  0  0  0  0
  159.5394   46.0187  146.4877 C   0  0  0  0  0  0  0  0  0  0  0  0
  158.8680   45.1642  147.5502 C   0  0  1  0  0  0  0  0  0  0  0  0
  157.6130   45.7533  147.8597 O   0  0  0  0  0  0  0  0  0  0  0  0
  158.5753   43.7237  147.1500 C   0  0  1  0  0  0  0  0  0  0  0  0
  159.5230   42.8572  147.7562 O   0  0  0  0  0  0  0  0  0  0  0  0
  157.2245   43.4524  147.7735 C   0  0  1  0  0  0  0  0  0  0  0  0
  157.4009   42.9338  149.0934 O   0  0  0  0  0  0  0  0  0  0  0  0
  156.5679   44.7946  147.9174 C   0  0  2  0  0  0  0  0  0  0  0  0
  155.6572   45.0165  146.7693 N   0  0  0  0  0  0  0  0  0  0  0  0
  154.5842   44.2663  146.4640 C   0  0  0  0  0  0  0  0  0  0  0  0
  153.9794   44.7315  145.3447 N   0  0  0  0  0  0  0  0  0  0  0  0
  154.6693   45.8021  144.9127 C   0  0  0  0  0  0  0  0  0  0  0  0
  154.5661   46.7609  143.7875 C   0  0  0  0  0  0  0  0  0  0  0  0
  153.6428   46.6510  142.9454 O   0  0  0  0  0  0  0  0  0  0  0  0
  155.4885   47.7351  143.7061 N   0  0  0  0  0  0  0  0  0  0  0  0
  156.4786   47.8479  144.6117 C   0  0  0  0  0  0  0  0  0  0  0  0
  157.3758   48.8507  144.4826 N   0  0  0  0  0  0  0  0  0  0  0  0
  156.6307   47.0081  145.6607 N   0  0  0  0  0  0  0  0  0  0  0  0
  155.7735   45.9841  145.8600 C   0  0  0  0  0  0  0  0  0  0  0  0
  159.6936   41.2955  147.3464 P   0  0  2  0  0  0  0  0  0  0  0  0
  158.3368   40.6344  147.3371 O   0  0  0  0  0  0  0  0  0  0  0  0
  160.8184   40.7554  148.2096 O   0  0  0  0  0  0  0  0  0  0  0  0
  160.1952   41.3927  145.8140 O   0  0  0  0  0  0  0  0  0  0  0  0
  161.5637   41.6758  145.5254 C   0  0  0  0  0  0  0  0  0  0  0  0
  161.7860   42.1855  144.0980 C   0  0  1  0  0  0  0  0  0  0  0  0
  161.6416   41.0992  143.1804 O   0  0  0  0  0  0  0  0  0  0  0  0
  160.8214   43.2788  143.6438 C   0  0  1  0  0  0  0  0  0  0  0  0
  161.3543   44.5874  143.8429 O   0  0  0  0  0  0  0  0  0  0  0  0
  160.6493   42.9651  142.1693 C   0  0  1  0  0  0  0  0  0  0  0  0
  161.6725   43.5940  141.3926 O   0  0  0  0  0  0  0  0  0  0  0  0
  160.8449   41.4680  142.0515 C   0  0  2  0  0  0  0  0  0  0  0  0
  159.5305   40.7866  142.1517 N   0  0  0  0  0  0  0  0  0  0  0  0
  159.1070   40.0447  143.1942 C   0  0  0  0  0  0  0  0  0  0  0  0
  157.8493   39.5613  142.9953 N   0  0  0  0  0  0  0  0  0  0  0  0
  157.4401   40.0048  141.7961 C   0  0  0  0  0  0  0  0  0  0  0  0
  156.2211   39.8610  140.9600 C   0  0  0  0  0  0  0  0  0  0  0  0
  155.2246   39.2075  141.3367 O   0  0  0  0  0  0  0  0  0  0  0  0
  156.2076   40.4824  139.7796 N   0  0  0  0  0  0  0  0  0  0  0  0
  157.2493   41.2008  139.3329 C   0  0  0  0  0  0  0  0  0  0  0  0
  157.1331   41.7718  138.1247 N   0  0  0  0  0  0  0  0  0  0  0  0
  158.3963   41.3712  140.0312 N   0  0  0  0  0  0  0  0  0  0  0  0
  158.5515   40.8076  141.2476 C   0  0  0  0  0  0  0  0  0  0  0  0
  1  3  2  6  0  0  0
  1 32  1  0  0  0  0
  1  2  1  0  0  0  0
  1  4  1  0  0  0  0
  4  5  1  0  0  0  0
  6  5  1  6  0  0  0
  7  6  1  0  0  0  0
  8  6  1  0  0  0  0
  8 10  1  0  0  0  0
  8  9  1  1  0  0  0
 10 11  1  1  0  0  0
 12 13  1  6  0  0  0
 12  7  1  0  0  0  0
 12 10  1  0  0  0  0
 14 13  1  0  0  0  0
 15 16  1  0  0  0  0
 15 14  2  0  0  0  0
 16 23  2  0  0  0  0
 17 16  1  0  0  0  0
 17 19  1  0  0  0  0
 18 17  2  0  0  0  0
 19 20  2  0  0  0  0
 20 22  1  0  0  0  0
 20 21  1  0  0  0  0
 23 13  1  0  0  0  0
 23 22  1  0  0  0  0
 24 25  2  1  0  0  0
 24  9  1  0  0  0  0
 24 26  1  0  0  0  0
 27 28  1  0  0  0  0
 27 24  1  0  0  0  0
 29 30  1  6  0  0  0
 29 28  1  0  0  0  0
 31 32  1  6  0  0  0
 31 29  1  0  0  0  0
 33 34  1  6  0  0  0
 33 35  1  0  0  0  0
 33 31  1  0  0  0  0
 35 36  1  1  0  0  0
 35 30  1  0  0  0  0
 36 37  1  0  0  0  0
 38 37  2  0  0  0  0
 39 38  1  0  0  0  0
 40 41  2  0  0  0  0
 40 39  1  0  0  0  0
 42 40  1  0  0  0  0
 43 42  2  0  0  0  0
 43 45  1  0  0  0  0
 44 43  1  0  0  0  0
 45 46  1  0  0  0  0
 46 39  2  0  0  0  0
 46 36  1  0  0  0  0
M  END
>  <CHROM.1>
177.11315926,5.77375764,158.35289461,43.47490744,144.42353215,-1.90200196
0.75227259,-2.15589741

>  <Name>
lig.pdb

>  <RI>
0

>  <Rbt.Current_Directory>
/home/itssahil/PROJECTS/Mol_Feturizer/New_Systems/rnas/4yb0

>  <Rbt.Executable>
rbdock ($Id: //depot/dev/client3/rdock/2013.1/src/exe/rbdock.cxx#4 $)

>  <Rbt.Library>
libRbt.so (2013.1, Build901 2013/11/27)

>  <Rbt.Parameter_File>
/export/apps/rDock/src/rDock_2013.1_src/data/scripts/dock_solv.prm

>  <Rbt.Receptor>
prm/pocket_docking_3.prm

>  <SCORE>
-46.6701

>  <SCORE.INTER>
-46.391

>  <SCORE.INTER.CONST>
1

>  <SCORE.INTER.POLAR>
0

>  <SCORE.INTER.ROT>
2

>  <SCORE.INTER.SOLV>
26.7167

>  <SCORE.INTER.VDW>
-44.7662

>  <SCORE.INTER.norm>
-1.0085

>  <SCORE.INTRA>
-0.281892

>  <SCORE.INTRA.DIHEDRAL>
0.068873

>  <SCORE.INTRA.DIHEDRAL.0>
4.74153

>  <SCORE.INTRA.POLAR>
0

>  <SCORE.INTRA.POLAR.0>
0

>  <SCORE.INTRA.REPUL>
0

>  <SCORE.INTRA.REPUL.0>
0

>  <SCORE.INTRA.SOLV>
1.2791

>  <SCORE.INTRA.SOLV.lig_0>
-60.4375

>  <SCORE.INTRA.VDW>
-0.955876

>  <SCORE.INTRA.VDW.0>
-1.83689

>  <SCORE.INTRA.norm>
-0.00612808

>  <SCORE.RESTR>
0.00275382

>  <SCORE.RESTR.CAVITY>
0.00275382

>  <SCORE.RESTR.norm>
5.98657e-05

>  <SCORE.SYSTEM>
0

>  <SCORE.SYSTEM.CONST>
0

>  <SCORE.SYSTEM.DIHEDRAL>
0

>  <SCORE.SYSTEM.SOLV>
0

>  <SCORE.SYSTEM.norm>
0

>  <SCORE.heavy>
46

>  <SCORE.norm>
-1.01457

>  <RMSD>
2.327

$$$$
lig.pdb
 OpenBabel11021811523D
libRbt.so/2013.1/901 2013/11/27
 46 52  0  0  0  0  0  0  0  0999 V2000
  159.7214   43.7762  147.0951 P   0  0  2  0  0  0  0  0  0  0  0  0
  160.8217   43.3176  148.0269 O   0  0  0  0  0  0  0  0  0  0  0  0
  158.5356   42.8586  146.9434 O   0  0  0  0  0  0  0  0  0  0  0  0
  160.2956   44.1051  145.6298 O   0  0  0  0  0  0  0  0  0  0  0  0
  161.6928   44.1554  145.3720 C   0  0  0  0  0  0  0  0  0  0  0  0
  161.9526   44.8578  144.0496 C   0  0  1  0  0  0  0  0  0  0  0  0
  162.2553   43.8671  143.0776 O   0  0  0  0  0  0  0  0  0  0  0  0
  160.7859   45.6615  143.4894 C   0  0  1  0  0  0  0  0  0  0  0  0
  161.0131   47.0468  143.7039 O   0  0  0  0  0  0  0  0  0  0  0  0
  160.8588   45.3985  142.0020 C   0  0  1  0  0  0  0  0  0  0  0  0
  161.6904   46.3809  141.3812 O   0  0  0  0  0  0  0  0  0  0  0  0
  161.5613   44.0797  141.8579 C   0  0  2  0  0  0  0  0  0  0  0  0
  160.5527   43.0063  141.6931 N   0  0  0  0  0  0  0  0  0  0  0  0
  159.9312   42.6848  140.5451 C   0  0  0  0  0  0  0  0  0  0  0  0
  159.0577   41.6686  140.7437 N   0  0  0  0  0  0  0  0  0  0  0  0
  159.1099   41.3220  142.0421 C   0  0  0  0  0  0  0  0  0  0  0  0
  158.4463   40.3229  142.9123 C   0  0  0  0  0  0  0  0  0  0  0  0
  157.5884   39.5405  142.4369 O   0  0  0  0  0  0  0  0  0  0  0  0
  158.7932   40.2916  144.2104 N   0  0  0  0  0  0  0  0  0  0  0  0
  159.7134   41.1345  144.7160 C   0  0  0  0  0  0  0  0  0  0  0  0
  160.0266   41.0544  146.0286 N   0  0  0  0  0  0  0  0  0  0  0  0
  160.3558   42.0688  143.9789 N   0  0  0  0  0  0  0  0  0  0  0  0
  160.1006   42.2086  142.6605 C   0  0  0  0  0  0  0  0  0  0  0  0
  159.8718   48.1815  143.4892 P   0  0  2  0  0  0  0  0  0  0  0  0
  159.2177   47.9782  142.1442 O   0  0  0  0  0  0  0  0  0  0  0  0
  160.5223   49.5043  143.8482 O   0  0  0  0  0  0  0  0  0  0  0  0
  158.7840   47.7964  144.6196 O   0  0  0  0  0  0  0  0  0  0  0  0
  158.9940   48.1847  145.9767 C   0  0  0  0  0  0  0  0  0  0  0  0
  158.1550   47.3767  146.9716 C   0  0  1  0  0  0  0  0  0  0  0  0
  156.7904   47.7928  146.8866 O   0  0  0  0  0  0  0  0  0  0  0  0
  158.1706   45.8653  146.7536 C   0  0  1  0  0  0  0  0  0  0  0  0
  159.1536   45.2129  147.5563 O   0  0  0  0  0  0  0  0  0  0  0  0
  156.7643   45.4662  147.1598 C   0  0  1  0  0  0  0  0  0  0  0  0
  156.6901   45.2269  148.5681 O   0  0  0  0  0  0  0  0  0  0  0  0
  155.9010   46.6733  146.8580 C   0  0  2  0  0  0  0  0  0  0  0  0
  155.3341   46.5486  145.4923 N   0  0  0  0  0  0  0  0  0  0  0  0
  155.8566   47.0858  144.3721 C   0  0  0  0  0  0  0  0  0  0  0  0
  155.1140   46.7846  143.2707 N   0  0  0  0  0  0  0  0  0  0  0  0
  154.0855   46.0264  143.6824 C   0  0  0  0  0  0  0  0  0  0  0  0
  152.9139   45.3734  143.0447 C   0  0  0  0  0  0  0  0  0  0  0  0
  152.7006   45.4352  141.8148 O   0  0  0  0  0  0  0  0  0  0  0  0
  152.0896   44.6822  143.8337 N   0  0  0  0  0  0  0  0  0  0  0  0
  152.2785   44.5807  145.1584 C   0  0  0  0  0  0  0  0  0  0  0  0
  151.3794   43.8724  145.8580 N   0  0  0  0  0  0  0  0  0  0  0  0
  153.3153   45.1535  145.8134 N   0  0  0  0  0  0  0  0  0  0  0  0
  154.2365   45.8777  145.1438 C   0  0  0  0  0  0  0  0  0  0  0  0
  1  3  2  6  0  0  0
  1 32  1  0  0  0  0
  1  2  1  0  0  0  0
  1  4  1  0  0  0  0
  4  5  1  0  0  0  0
  6  5  1  1  0  0  0
  7  6  1  0  0  0  0
  8  6  1  0  0  0  0
  8 10  1  0  0  0  0
  8  9  1  6  0  0  0
 10 11  1  6  0  0  0
 12 13  1  1  0  0  0
 12  7  1  0  0  0  0
 12 10  1  0  0  0  0
 14 13  1  0  0  0  0
 15 16  1  0  0  0  0
 15 14  2  0  0  0  0
 16 23  2  0  0  0  0
 17 16  1  0  0  0  0
 17 19  1  0  0  0  0
 18 17  2  0  0  0  0
 19 20  2  0  0  0  0
 20 22  1  0  0  0  0
 20 21  1  0  0  0  0
 23 13  1  0  0  0  0
 23 22  1  0  0  0  0
 24 25  2  6  0  0  0
 24  9  1  0  0  0  0
 24 26  1  0  0  0  0
 27 28  1  0  0  0  0
 27 24  1  0  0  0  0
 29 30  1  6  0  0  0
 29 28  1  0  0  0  0
 31 32  1  1  0  0  0
 31 29  1  0  0  0  0
 33 34  1  1  0  0  0
 33 35  1  0  0  0  0
 33 31  1  0  0  0  0
 35 36  1  6  0  0  0
 35 30  1  0  0  0  0
 36 37  1  0  0  0  0
 38 37  2  0  0  0  0
 39 38  1  0  0  0  0
 40 41  2  0  0  0  0
 40 39  1  0  0  0  0
 42 40  1  0  0  0  0
 43 42  2  0  0  0  0
 43 45  1  0  0  0  0
 44 43  1  0  0  0  0
 45 46  1  0  0  0  0
 46 39  2  0  0  0  0
 46 36  1  0  0  0  0
M  END
>  <CHROM.1>
-163.32819811,19.65965891,158.26160775,44.84015840,144.48693178,-0.34228223
0.14861113,0.29171993

>  <Name>
lig.pdb

>  <RI>
0

>  <Rbt.Current_Directory>
/home/itssahil/PROJECTS/Mol_Feturizer/New_Systems/rnas/4yb0

>  <Rbt.Executable>
rbdock ($Id: //depot/dev/client3/rdock/2013.1/src/exe/rbdock.cxx#4 $)

>  <Rbt.Library>
libRbt.so (2013.1, Build901 2013/11/27)

>  <Rbt.Parameter_File>
/export/apps/rDock/src/rDock_2013.1_src/data/scripts/dock_solv.prm

>  <Rbt.Receptor>
prm/pocket_docking_4.prm

>  <SCORE>
-26.0976

>  <SCORE.INTER>
-27.2966

>  <SCORE.INTER.CONST>
1

>  <SCORE.INTER.POLAR>
0

>  <SCORE.INTER.ROT>
2

>  <SCORE.INTER.SOLV>
22.2937

>  <SCORE.INTER.VDW>
-30.5623

>  <SCORE.INTER.norm>
-0.593404

>  <SCORE.INTRA>
1.19901

>  <SCORE.INTRA.DIHEDRAL>
0.144825

>  <SCORE.INTRA.DIHEDRAL.0>
4.74153

>  <SCORE.INTRA.POLAR>
0

>  <SCORE.INTRA.POLAR.0>
0

>  <SCORE.INTRA.REPUL>
0

>  <SCORE.INTRA.REPUL.0>
0

>  <SCORE.INTRA.SOLV>
4.08778

>  <SCORE.INTRA.SOLV.lig_0>
-60.4375

>  <SCORE.INTRA.VDW>
-0.917288

>  <SCORE.INTRA.VDW.0>
-1.83689

>  <SCORE.INTRA.norm>
0.0260655

>  <SCORE.RESTR>
0

>  <SCORE.RESTR.CAVITY>
0

>  <SCORE.RESTR.norm>
0

>  <SCORE.SYSTEM>
0

>  <SCORE.SYSTEM.CONST>
0

>  <SCORE.SYSTEM.DIHEDRAL>
0

>  <SCORE.SYSTEM.SOLV>
0

>  <SCORE.SYSTEM.norm>
0

>  <SCORE.heavy>
46

>  <SCORE.norm>
-0.567338

>  <RMSD>
2.591

$$$$
lig.pdb
 OpenBabel11021811523D
libRbt.so/2013.1/901 2013/11/27
 46 52  0  0  0  0  0  0  0  0999 V2000
  159.7323   43.7726  147.0916 P   0  0  2  0  0  0  0  0  0  0  0  0
  160.8369   43.3179  148.0204 O   0  0  0  0  0  0  0  0  0  0  0  0
  158.5492   42.8510  146.9437 O   0  0  0  0  0  0  0  0  0  0  0  0
  160.3011   44.1030  145.6246 O   0  0  0  0  0  0  0  0  0  0  0  0
  161.6974   44.1579  145.3627 C   0  0  0  0  0  0  0  0  0  0  0  0
  161.9509   44.8609  144.0393 C   0  0  1  0  0  0  0  0  0  0  0  0
  162.2541   43.8708  143.0667 O   0  0  0  0  0  0  0  0  0  0  0  0
  160.7799   45.6605  143.4823 C   0  0  1  0  0  0  0  0  0  0  0  0
  161.0030   47.0465  143.6958 O   0  0  0  0  0  0  0  0  0  0  0  0
  160.8493   45.3972  141.9948 C   0  0  1  0  0  0  0  0  0  0  0  0
  161.6757   46.3823  141.3713 O   0  0  0  0  0  0  0  0  0  0  0  0
  161.5558   44.0808  141.8490 C   0  0  2  0  0  0  0  0  0  0  0  0
  160.5503   43.0039  141.6874 N   0  0  0  0  0  0  0  0  0  0  0  0
  159.9242   42.6821  140.5421 C   0  0  0  0  0  0  0  0  0  0  0  0
  159.0555   41.6623  140.7433 N   0  0  0  0  0  0  0  0  0  0  0  0
  159.1156   41.3138  142.0409 C   0  0  0  0  0  0  0  0  0  0  0  0
  158.4601   40.3106  142.9126 C   0  0  0  0  0  0  0  0  0  0  0  0
  157.6027   39.5260  142.4402 O   0  0  0  0  0  0  0  0  0  0  0  0
  158.8138   40.2784  144.2089 N   0  0  0  0  0  0  0  0  0  0  0  0
  159.7334   41.1238  144.7113 C   0  0  0  0  0  0  0  0  0  0  0  0
  160.0536   41.0427  146.0221 N   0  0  0  0  0  0  0  0  0  0  0  0
  160.3686   42.0617  143.9726 N   0  0  0  0  0  0  0  0  0  0  0  0
  160.1061   42.2029  142.6557 C   0  0  0  0  0  0  0  0  0  0  0  0
  159.8574   48.1773  143.4841 P   0  0  2  0  0  0  0  0  0  0  0  0
  159.2000   47.9715  142.1411 O   0  0  0  0  0  0  0  0  0  0  0  0
  160.5044   49.5024  143.8408 O   0  0  0  0  0  0  0  0  0  0  0  0
  158.7742   47.7889  144.6178 O   0  0  0  0  0  0  0  0  0  0  0  0
  158.9868   48.1783  145.9741 C   0  0  0  0  0  0  0  0  0  0  0  0
  158.1535   47.3678  146.9718 C   0  0  1  0  0  0  0  0  0  0  0  0
  156.7872   47.7793  146.8906 O   0  0  0  0  0  0  0  0  0  0  0  0
  158.1735   45.8564  146.7541 C   0  0  1  0  0  0  0  0  0  0  0  0
  159.1610   45.2075  147.5541 O   0  0  0  0  0  0  0  0  0  0  0  0
  156.7697   45.4526  147.1646 C   0  0  1  0  0  0  0  0  0  0  0  0
  156.7005   45.2135  148.5731 O   0  0  0  0  0  0  0  0  0  0  0  0
  155.9015   46.6567  146.8650 C   0  0  2  0  0  0  0  0  0  0  0  0
  155.3310   46.5298  145.5010 N   0  0  0  0  0  0  0  0  0  0  0  0
  155.8433   47.0763  144.3805 C   0  0  0  0  0  0  0  0  0  0  0  0
  155.1001   46.7700  143.2809 N   0  0  0  0  0  0  0  0  0  0  0  0
  154.0818   45.9989  143.6940 C   0  0  0  0  0  0  0  0  0  0  0  0
  152.9154   45.3345  143.0586 C   0  0  0  0  0  0  0  0  0  0  0  0
  152.6968   45.3977  141.8297 O   0  0  0  0  0  0  0  0  0  0  0  0
  152.1018   44.6317  143.8485 N   0  0  0  0  0  0  0  0  0  0  0  0
  152.2967   44.5282  145.1722 C   0  0  0  0  0  0  0  0  0  0  0  0
  151.4083   43.8077  145.8728 N   0  0  0  0  0  0  0  0  0  0  0  0
  153.3294   45.1108  145.8251 N   0  0  0  0  0  0  0  0  0  0  0  0
  154.2398   45.8475  145.1544 C   0  0  0  0  0  0  0  0  0  0  0  0
  1  3  2  6  0  0  0
  1 32  1  0  0  0  0
  1  2  1  0  0  0  0
  1  4  1  0  0  0  0
  4  5  1  0  0  0  0
  6  5  1  1  0  0  0
  7  6  1  0  0  0  0
  8  6  1  0  0  0  0
  8 10  1  0  0  0  0
  8  9  1  6  0  0  0
 10 11  1  6  0  0  0
 12 13  1  1  0  0  0
 12  7  1  0  0  0  0
 12 10  1  0  0  0  0
 14 13  1  0  0  0  0
 15 16  1  0  0  0  0
 15 14  2  0  0  0  0
 16 23  2  0  0  0  0
 17 16  1  0  0  0  0
 17 19  1  0  0  0  0
 18 17  2  0  0  0  0
 19 20  2  0  0  0  0
 20 22  1  0  0  0  0
 20 21  1  0  0  0  0
 23 13  1  0  0  0  0
 23 22  1  0  0  0  0
 24 25  2  6  0  0  0
 24  9  1  0  0  0  0
 24 26  1  0  0  0  0
 27 28  1  0  0  0  0
 27 24  1  0  0  0  0
 29 30  1  6  0  0  0
 29 28  1  0  0  0  0
 31 32  1  1  0  0  0
 31 29  1  0  0  0  0
 33 34  1  1  0  0  0
 33 35  1  0  0  0  0
 33 31  1  0  0  0  0
 35 36  1  6  0  0  0
 35 30  1  0  0  0  0
 36 37  1  0  0  0  0
 38 37  2  0  0  0  0
 39 38  1  0  0  0  0
 40 41  2  0  0  0  0
 40 39  1  0  0  0  0
 42 40  1  0  0  0  0
 43 42  2  0  0  0  0
 43 45  1  0  0  0  0
 44 43  1  0  0  0  0
 45 46  1  0  0  0  0
 46 39  2  0  0  0  0
 46 36  1  0  0  0  0
M  END
>  <CHROM.1>
-163.49869385,19.16161043,158.26348948,44.82809447,144.48686563,-0.33952151
0.15303713,0.29053272

>  <Name>
lig.pdb

>  <RI>
0

>  <Rbt.Current_Directory>
/home/itssahil/PROJECTS/Mol_Feturizer/New_Systems/rnas/4yb0

>  <Rbt.Executable>
rbdock ($Id: //depot/dev/client3/rdock/2013.1/src/exe/rbdock.cxx#4 $)

>  <Rbt.Library>
libRbt.so (2013.1, Build901 2013/11/27)

>  <Rbt.Parameter_File>
/export/apps/rDock/src/rDock_2013.1_src/data/scripts/dock_solv.prm

>  <Rbt.Receptor>
prm/pocket_docking_4.prm

>  <SCORE>
-26.1372

>  <SCORE.INTER>
-27.2491

>  <SCORE.INTER.CONST>
1

>  <SCORE.INTER.POLAR>
0

>  <SCORE.INTER.ROT>
2

>  <SCORE.INTER.SOLV>
22.2257

>  <SCORE.INTER.VDW>
-30.508

>  <SCORE.INTER.norm>
-0.592372

>  <SCORE.INTRA>
1.11193

>  <SCORE.INTRA.DIHEDRAL>
0.143708

>  <SCORE.INTRA.DIHEDRAL.0>
4.74153

>  <SCORE.INTRA.POLAR>
0

>  <SCORE.INTRA.POLAR.0>
0

>  <SCORE.INTRA.REPUL>
0

>  <SCORE.INTRA.REPUL.0>
0

>  <SCORE.INTRA.SOLV>
4.06665

>  <SCORE.INTRA.SOLV.lig_0>
-60.4375

>  <SCORE.INTRA.VDW>
-0.993249

>  <SCORE.INTRA.VDW.0>
-1.83689

>  <SCORE.INTRA.norm>
0.0241724

>  <SCORE.RESTR>
0

>  <SCORE.RESTR.CAVITY>
0

>  <SCORE.RESTR.norm>
0

>  <SCORE.SYSTEM>
0

>  <SCORE.SYSTEM.CONST>
0

>  <SCORE.SYSTEM.DIHEDRAL>
0

>  <SCORE.SYSTEM.SOLV>
0

>  <SCORE.SYSTEM.norm>
0

>  <SCORE.heavy>
46

>  <SCORE.norm>
-0.568199

>  <RMSD>
2.591

$$$$
lig.pdb
 OpenBabel11021811523D
libRbt.so/2013.1/901 2013/11/27
 46 52  0  0  0  0  0  0  0  0999 V2000
  160.0481   43.8529  147.1900 P   0  0  2  0  0  0  0  0  0  0  0  0
  161.1328   43.3423  148.1133 O   0  0  0  0  0  0  0  0  0  0  0  0
  158.8156   42.9965  147.0540 O   0  0  0  0  0  0  0  0  0  0  0  0
  160.6240   44.1461  145.7178 O   0  0  0  0  0  0  0  0  0  0  0  0
  162.0193   44.1238  145.4463 C   0  0  0  0  0  0  0  0  0  0  0  0
  162.3015   44.8068  144.1183 C   0  0  1  0  0  0  0  0  0  0  0  0
  162.5436   43.7979  143.1479 O   0  0  0  0  0  0  0  0  0  0  0  0
  161.1719   45.6668  143.5658 C   0  0  1  0  0  0  0  0  0  0  0  0
  161.4717   47.0394  143.7718 O   0  0  0  0  0  0  0  0  0  0  0  0
  161.2166   45.3943  142.0789 C   0  0  1  0  0  0  0  0  0  0  0  0
  162.0911   46.3305  141.4457 O   0  0  0  0  0  0  0  0  0  0  0  0
  161.8494   44.0408  141.9340 C   0  0  2  0  0  0  0  0  0  0  0  0
  160.7856   43.0197  141.7838 N   0  0  0  0  0  0  0  0  0  0  0  0
  160.1283   42.7347  140.6462 C   0  0  0  0  0  0  0  0  0  0  0  0
  159.2089   41.7624  140.8571 N   0  0  0  0  0  0  0  0  0  0  0  0
  159.2672   41.4079  142.1531 C   0  0  0  0  0  0  0  0  0  0  0  0
  158.5704   40.4391  143.0317 C   0  0  0  0  0  0  0  0  0  0  0  0
  157.6661   39.7026  142.5692 O   0  0  0  0  0  0  0  0  0  0  0  0
  158.9388   40.3847  144.3231 N   0  0  0  0  0  0  0  0  0  0  0  0
  159.9089   41.1785  144.8149 C   0  0  0  0  0  0  0  0  0  0  0  0
  160.2414   41.0770  146.1212 N   0  0  0  0  0  0  0  0  0  0  0  0
  160.5836   42.0829  144.0695 N   0  0  0  0  0  0  0  0  0  0  0  0
  160.3119   42.2412  142.7565 C   0  0  0  0  0  0  0  0  0  0  0  0
  160.3878   48.2301  143.5630 P   0  0  2  0  0  0  0  0  0  0  0  0
  159.7109   48.0552  142.2253 O   0  0  0  0  0  0  0  0  0  0  0  0
  161.1085   49.5194  143.9097 O   0  0  0  0  0  0  0  0  0  0  0  0
  159.2930   47.9057  144.7056 O   0  0  0  0  0  0  0  0  0  0  0  0
  159.5359   48.2882  146.0588 C   0  0  0  0  0  0  0  0  0  0  0  0
  158.6666   47.5282  147.0654 C   0  0  1  0  0  0  0  0  0  0  0  0
  157.3242   48.0132  146.9917 O   0  0  0  0  0  0  0  0  0  0  0  0
  158.6028   46.0171  146.8541 C   0  0  1  0  0  0  0  0  0  0  0  0
  159.5591   45.3186  147.6502 O   0  0  0  0  0  0  0  0  0  0  0  0
  157.1821   45.6920  147.2757 C   0  0  1  0  0  0  0  0  0  0  0  0
  157.1097   45.4626  148.6857 O   0  0  0  0  0  0  0  0  0  0  0  0
  156.3786   46.9405  146.9768 C   0  0  2  0  0  0  0  0  0  0  0  0
  155.7926   46.8395  145.6172 N   0  0  0  0  0  0  0  0  0  0  0  0
  156.2572   47.4570  144.5130 C   0  0  0  0  0  0  0  0  0  0  0  0
  155.5124   47.1573  143.4127 N   0  0  0  0  0  0  0  0  0  0  0  0
  154.5422   46.3180  143.8084 C   0  0  0  0  0  0  0  0  0  0  0  0
  153.4010   45.6202  143.1631 C   0  0  0  0  0  0  0  0  0  0  0  0
  153.1589   45.7217  141.9412 O   0  0  0  0  0  0  0  0  0  0  0  0
  152.6381   44.8444  143.9351 N   0  0  0  0  0  0  0  0  0  0  0  0
  152.8602   44.6976  145.2503 C   0  0  0  0  0  0  0  0  0  0  0  0
  152.0220   43.9039  145.9335 N   0  0  0  0  0  0  0  0  0  0  0  0
  153.8724   45.3062  145.9117 N   0  0  0  0  0  0  0  0  0  0  0  0
  154.7323   46.1159  145.2587 C   0  0  0  0  0  0  0  0  0  0  0  0
  1  3  2  6  0  0  0
  1 32  1  0  0  0  0
  1  2  1  0  0  0  0
  1  4  1  0  0  0  0
  4  5  1  0  0  0  0
  6  5  1  1  0  0  0
  7  6  1  0  0  0  0
  8  6  1  0  0  0  0
  8 10  1  0  0  0  0
  8  9  1  6  0  0  0
 10 11  1  6  0  0  0
 12 13  1  1  0  0  0
 12  7  1  0  0  0  0
 12 10  1  0  0  0  0
 14 13  1  0  0  0  0
 15 16  1  0  0  0  0
 15 14  2  0  0  0  0
 16 23  2  0  0  0  0
 17 16  1  0  0  0  0
 17 19  1  0  0  0  0
 18 17  2  0  0  0  0
 19 20  2  0  0  0  0
 20 22  1  0  0  0  0
 20 21  1  0  0  0  0
 23 13  1  0  0  0  0
 23 22  1  0  0  0  0
 24 25  2  6  0  0  0
 24  9  1  0  0  0  0
 24 26  1  0  0  0  0
 27 28  1  0  0  0  0
 27 24  1  0  0  0  0
 29 30  1  6  0  0  0
 29 28  1  0  0  0  0
 31 32  1  1  0  0  0
 31 29  1  0  0  0  0
 33 34  1  1  0  0  0
 33 35  1  0  0  0  0
 33 31  1  0  0  0  0
 35 36  1  6  0  0  0
 35 30  1  0  0  0  0
 36 37  1  0  0  0  0
 38 37  2  0  0  0  0
 39 38  1  0  0  0  0
 40 41  2  0  0  0  0
 40 39  1  0  0  0  0
 42 40  1  0  0  0  0
 43 42  2  0  0  0  0
 43 45  1  0  0  0  0
 44 43  1  0  0  0  0
 45 46  1  0  0  0  0
 46 39  2  0  0  0  0
 46 36  1  0  0  0  0
M  END
>  <CHROM.1>
-164.01025142,12.52488073,158.64294160,44.94561922,144.58368775,-0.38345637
0.15294986,0.29472292

>  <Name>
lig.pdb

>  <RI>
0

>  <Rbt.Current_Directory>
/home/itssahil/PROJECTS/Mol_Feturizer/New_Systems/rnas/4yb0

>  <Rbt.Executable>
rbdock ($Id: //depot/dev/client3/rdock/2013.1/src/exe/rbdock.cxx#4 $)

>  <Rbt.Library>
libRbt.so (2013.1, Build901 2013/11/27)

>  <Rbt.Parameter_File>
/export/apps/rDock/src/rDock_2013.1_src/data/scripts/dock_solv.prm

>  <Rbt.Receptor>
prm/pocket_docking_8.prm

>  <SCORE>
-25.5987

>  <SCORE.INTER>
-26.507

>  <SCORE.INTER.CONST>
1

>  <SCORE.INTER.POLAR>
0

>  <SCORE.INTER.ROT>
2

>  <SCORE.INTER.SOLV>
22.0124

>  <SCORE.INTER.VDW>
-29.9421

>  <SCORE.INTER.norm>
-0.576239

>  <SCORE.INTRA>
0.90825

>  <SCORE.INTRA.DIHEDRAL>
0.128495

>  <SCORE.INTRA.DIHEDRAL.0>
4.74153

>  <SCORE.INTRA.POLAR>
0

>  <SCORE.INTRA.POLAR.0>
0

>  <SCORE.INTRA.REPUL>
0

>  <SCORE.INTRA.REPUL.0>
0

>  <SCORE.INTRA.SOLV>
3.99022

>  <SCORE.INTRA.SOLV.lig_0>
-60.4375

>  <SCORE.INTRA.VDW>
-1.15111

>  <SCORE.INTRA.VDW.0>
-1.83689

>  <SCORE.INTRA.norm>
0.0197446

>  <SCORE.RESTR>
0

>  <SCORE.RESTR.CAVITY>
0

>  <SCORE.RESTR.norm>
0

>  <SCORE.SYSTEM>
0

>  <SCORE.SYSTEM.CONST>
0

>  <SCORE.SYSTEM.DIHEDRAL>
0

>  <SCORE.SYSTEM.SOLV>
0

>  <SCORE.SYSTEM.norm>
0

>  <SCORE.heavy>
46

>  <SCORE.norm>
-0.556494

>  <RMSD>
2.765

$$$$
lig.pdb
 OpenBabel11021811523D
libRbt.so/2013.1/901 2013/11/27
 46 52  0  0  0  0  0  0  0  0999 V2000
  159.6949   41.7939  146.4691 P   0  0  2  0  0  0  0  0  0  0  0  0
  160.8349   40.9697  147.0264 O   0  0  0  0  0  0  0  0  0  0  0  0
  158.3828   41.0824  146.2613 O   0  0  0  0  0  0  0  0  0  0  0  0
  160.1082   42.5044  145.0873 O   0  0  0  0  0  0  0  0  0  0  0  0
  161.4515   42.5016  144.6217 C   0  0  0  0  0  0  0  0  0  0  0  0
  161.6277   43.5508  143.5364 C   0  0  1  0  0  0  0  0  0  0  0  0
  161.6558   42.8850  142.2818 O   0  0  0  0  0  0  0  0  0  0  0  0
  160.5207   44.5930  143.4407 C   0  0  1  0  0  0  0  0  0  0  0  0
  160.9663   45.8169  144.0065 O   0  0  0  0  0  0  0  0  0  0  0  0
  160.3563   44.7966  141.9512 C   0  0  1  0  0  0  0  0  0  0  0  0
  161.2266   45.8409  141.5108 O   0  0  0  0  0  0  0  0  0  0  0  0
  160.8415   43.5275  141.3130 C   0  0  2  0  0  0  0  0  0  0  0  0
  159.6795   42.6561  141.0174 N   0  0  0  0  0  0  0  0  0  0  0  0
  158.8871   42.7475  139.9352 C   0  0  0  0  0  0  0  0  0  0  0  0
  157.9092   41.8110  139.9794 N   0  0  0  0  0  0  0  0  0  0  0  0
  158.0661   41.0978  141.1087 C   0  0  0  0  0  0  0  0  0  0  0  0
  157.3767   39.9607  141.7627 C   0  0  0  0  0  0  0  0  0  0  0  0
  156.3670   39.4415  141.2290 O   0  0  0  0  0  0  0  0  0  0  0  0
  157.8676   39.5177  142.9329 N   0  0  0  0  0  0  0  0  0  0  0  0
  158.9507   40.0794  143.5024 C   0  0  0  0  0  0  0  0  0  0  0  0
  159.4032   39.5892  144.6781 N   0  0  0  0  0  0  0  0  0  0  0  0
  159.6259   41.1181  142.9602 N   0  0  0  0  0  0  0  0  0  0  0  0
  159.2380   41.6611  141.7864 C   0  0  0  0  0  0  0  0  0  0  0  0
  159.9768   47.0633  144.3280 P   0  0  2  0  0  0  0  0  0  0  0  0
  159.1266   47.3472  143.1136 O   0  0  0  0  0  0  0  0  0  0  0  0
  160.8483   48.1442  144.9398 O   0  0  0  0  0  0  0  0  0  0  0  0
  159.0070   46.4509  145.4654 O   0  0  0  0  0  0  0  0  0  0  0  0
  159.4490   46.3799  146.8204 C   0  0  0  0  0  0  0  0  0  0  0  0
  158.6460   45.3858  147.6651 C   0  0  1  0  0  0  0  0  0  0  0  0
  157.3541   45.9328  147.9379 O   0  0  0  0  0  0  0  0  0  0  0  0
  158.4204   44.0211  147.0181 C   0  0  1  0  0  0  0  0  0  0  0  0
  159.4008   43.0642  147.4174 O   0  0  0  0  0  0  0  0  0  0  0  0
  157.0392   43.6485  147.5237 C   0  0  1  0  0  0  0  0  0  0  0  0
  157.1214   42.9941  148.7928 O   0  0  0  0  0  0  0  0  0  0  0  0
  156.3209   44.9646  147.7369 C   0  0  2  0  0  0  0  0  0  0  0  0
  155.5645   45.3211  146.5110 N   0  0  0  0  0  0  0  0  0  0  0  0
  154.5710   44.5949  145.9612 C   0  0  0  0  0  0  0  0  0  0  0  0
  154.0639   45.1909  144.8463 N   0  0  0  0  0  0  0  0  0  0  0  0
  154.7392   46.3375  144.6689 C   0  0  0  0  0  0  0  0  0  0  0  0
  154.7262   47.4460  143.6806 C   0  0  0  0  0  0  0  0  0  0  0  0
  153.9273   47.4768  142.7200 O   0  0  0  0  0  0  0  0  0  0  0  0
  155.5931   48.4434  143.8632 N   0  0  0  0  0  0  0  0  0  0  0  0
  156.4666   48.4600  144.8818 C   0  0  0  0  0  0  0  0  0  0  0  0
  157.3027   49.5059  144.9615 N   0  0  0  0  0  0  0  0  0  0  0  0
  156.5458   47.4843  145.8167 N   0  0  0  0  0  0  0  0  0  0  0  0
  155.7247   46.4145  145.7660 C   0  0  0  0  0  0  0  0  0  0  0  0
  1  3  2  6  0  0  0
  1 32  1  0  0  0  0
  1  2  1  0  0  0  0
  1  4  1  0  0  0  0
  4  5  1  0  0  0  0
  6  5  1  1  0  0  0
  7  6  1  0  0  0  0
  8  6  1  0  0  0  0
  8 10  1  0  0  0  0
  8  9  1  1  0  0  0
 10 11  1  6  0  0  0
 12 13  1  1  0  0  0
 12  7  1  0  0  0  0
 12 10  1  0  0  0  0
 14 13  1  0  0  0  0
 15 16  1  0  0  0  0
 15 14  2  0  0  0  0
 16 23  2  0  0  0  0
 17 16  1  0  0  0  0
 17 19  1  0  0  0  0
 18 17  2  0  0  0  0
 19 20  2  0  0  0  0
 20 22  1  0  0  0  0
 20 21  1  0  0  0  0
 23 13  1  0  0  0  0
 23 22  1  0  0  0  0
 24 25  2  6  0  0  0
 24  9  1  0  0  0  0
 24 26  1  0  0  0  0
 27 28  1  0  0  0  0
 27 24  1  0  0  0  0
 29 30  1  6  0  0  0
 29 28  1  0  0  0  0
 31 32  1  1  0  0  0
 31 29  1  0  0  0  0
 33 34  1  1  0  0  0
 33 35  1  0  0  0  0
 33 31  1  0  0  0  0
 35 36  1  6  0  0  0
 35 30  1  0  0  0  0
 36 37  1  0  0  0  0
 38 37  2  0  0  0  0
 39 38  1  0  0  0  0
 40 41  2  0  0  0  0
 40 39  1  0  0  0  0
 42 40  1  0  0  0  0
 43 42  2  0  0  0  0
 43 45  1  0  0  0  0
 44 43  1  0  0  0  0
 45 46  1  0  0  0  0
 46 39  2  0  0  0  0
 46 36  1  0  0  0  0
M  END
>  <CHROM.1>
-161.93091428,175.72092764,158.45701163,44.18868527,144.45636161,0.42427652
-1.14062989,2.45411680

>  <Name>
lig.pdb

>  <RI>
0

>  <Rbt.Current_Directory>
/home/itssahil/PROJECTS/Mol_Feturizer/New_Systems/rnas/4yb0

>  <Rbt.Executable>
rbdock ($Id: //depot/dev/client3/rdock/2013.1/src/exe/rbdock.cxx#4 $)

>  <Rbt.Library>
libRbt.so (2013.1, Build901 2013/11/27)

>  <Rbt.Parameter_File>
/export/apps/rDock/src/rDock_2013.1_src/data/scripts/dock_solv.prm

>  <Rbt.Receptor>
prm/pocket_docking_5.prm

>  <SCORE>
-4.65361

>  <SCORE.INTER>
-6.8249

>  <SCORE.INTER.CONST>
1

>  <SCORE.INTER.POLAR>
0

>  <SCORE.INTER.ROT>
2

>  <SCORE.INTER.SOLV>
24.8642

>  <SCORE.INTER.VDW>
-17.7713

>  <SCORE.INTER.norm>
-0.148367

>  <SCORE.INTRA>
2.0738

>  <SCORE.INTRA.DIHEDRAL>
0.110989

>  <SCORE.INTRA.DIHEDRAL.0>
4.74153

>  <SCORE.INTRA.POLAR>
0

>  <SCORE.INTRA.POLAR.0>
0

>  <SCORE.INTRA.REPUL>
0

>  <SCORE.INTRA.REPUL.0>
0

>  <SCORE.INTRA.SOLV>
6.72496

>  <SCORE.INTRA.SOLV.lig_0>
-60.4375

>  <SCORE.INTRA.VDW>
-1.34417

>  <SCORE.INTRA.VDW.0>
-1.83689

>  <SCORE.INTRA.norm>
0.0450827

>  <SCORE.RESTR>
0.0974901

>  <SCORE.RESTR.CAVITY>
0.0974901

>  <SCORE.RESTR.norm>
0.00211935

>  <SCORE.SYSTEM>
0

>  <SCORE.SYSTEM.CONST>
0

>  <SCORE.SYSTEM.DIHEDRAL>
0

>  <SCORE.SYSTEM.SOLV>
0

>  <SCORE.SYSTEM.norm>
0

>  <SCORE.heavy>
46

>  <SCORE.norm>
-0.101165

>  <RMSD>
3.045

$$$$
lig.pdb
 OpenBabel11021811523D
libRbt.so/2013.1/901 2013/11/27
 46 52  0  0  0  0  0  0  0  0999 V2000
  159.8725   48.6963  142.9201 P   0  0  2  0  0  0  0  0  0  0  0  0
  160.0701   50.1869  143.0901 O   0  0  0  0  0  0  0  0  0  0  0  0
  159.3702   48.2281  141.5787 O   0  0  0  0  0  0  0  0  0  0  0  0
  158.9040   48.1016  144.0574 O   0  0  0  0  0  0  0  0  0  0  0  0
  158.5023   48.8822  145.1756 C   0  0  0  0  0  0  0  0  0  0  0  0
  157.9375   47.9820  146.2620 C   0  0  1  0  0  0  0  0  0  0  0  0
  156.5216   48.0936  146.2333 O   0  0  0  0  0  0  0  0  0  0  0  0
  158.2507   46.4981  146.1179 C   0  0  1  0  0  0  0  0  0  0  0  0
  159.2714   46.1337  147.0355 O   0  0  0  0  0  0  0  0  0  0  0  0
  156.9680   45.8236  146.5500 C   0  0  1  0  0  0  0  0  0  0  0  0
  157.0039   45.5818  147.9579 O   0  0  0  0  0  0  0  0  0  0  0  0
  155.8803   46.8296  146.3088 C   0  0  2  0  0  0  0  0  0  0  0  0
  155.2359   46.5464  145.0044 N   0  0  0  0  0  0  0  0  0  0  0  0
  155.6916   46.9422  143.8031 C   0  0  0  0  0  0  0  0  0  0  0  0
  154.8586   46.5303  142.8174 N   0  0  0  0  0  0  0  0  0  0  0  0
  153.8431   45.8555  143.3849 C   0  0  0  0  0  0  0  0  0  0  0  0
  152.6250   45.1558  142.9131 C   0  0  0  0  0  0  0  0  0  0  0  0
  152.3530   45.1150  141.6890 O   0  0  0  0  0  0  0  0  0  0  0  0
  151.8354   44.5788  143.8351 N   0  0  0  0  0  0  0  0  0  0  0  0
  152.1309   44.6267  145.1479 C   0  0  0  0  0  0  0  0  0  0  0  0
  151.3026   44.0243  146.0300 N   0  0  0  0  0  0  0  0  0  0  0  0
  153.2245   45.2477  145.6452 N   0  0  0  0  0  0  0  0  0  0  0  0
  154.1014   45.8693  144.8281 C   0  0  0  0  0  0  0  0  0  0  0  0
  160.0508   44.7104  146.9836 P   0  0  2  0  0  0  0  0  0  0  0  0
  159.0393   43.5947  146.8826 O   0  0  0  0  0  0  0  0  0  0  0  0
  161.0636   44.7450  148.1127 O   0  0  0  0  0  0  0  0  0  0  0  0
  160.8251   44.7914  145.5682 O   0  0  0  0  0  0  0  0  0  0  0  0
  162.0436   45.5261  145.4599 C   0  0  0  0  0  0  0  0  0  0  0  0
  162.3990   45.8950  144.0162 C   0  0  1  0  0  0  0  0  0  0  0  0
  162.8455   44.7259  143.3259 O   0  0  0  0  0  0  0  0  0  0  0  0
  161.2513   46.4809  143.1968 C   0  0  1  0  0  0  0  0  0  0  0  0
  161.2478   47.9077  143.2134 O   0  0  0  0  0  0  0  0  0  0  0  0
  161.5371   45.9399  141.8084 C   0  0  1  0  0  0  0  0  0  0  0  0
  162.4345   46.8009  141.1017 O   0  0  0  0  0  0  0  0  0  0  0  0
  162.2508   44.6227  142.0294 C   0  0  2  0  0  0  0  0  0  0  0  0
  161.2599   43.5182  142.0452 N   0  0  0  0  0  0  0  0  0  0  0  0
  160.5016   43.1273  141.0018 C   0  0  0  0  0  0  0  0  0  0  0  0
  159.6970   42.0767  141.3246 N   0  0  0  0  0  0  0  0  0  0  0  0
  159.9420   41.7708  142.6086 C   0  0  0  0  0  0  0  0  0  0  0  0
  159.4342   40.7769  143.5883 C   0  0  0  0  0  0  0  0  0  0  0  0
  158.5701   39.9245  143.2902 O   0  0  0  0  0  0  0  0  0  0  0  0
  159.9543   40.8023  144.8165 N   0  0  0  0  0  0  0  0  0  0  0  0
  160.8882   41.6931  145.1840 C   0  0  0  0  0  0  0  0  0  0  0  0
  161.3313   41.6373  146.4489 N   0  0  0  0  0  0  0  0  0  0  0  0
  161.3942   42.6341  144.3528 N   0  0  0  0  0  0  0  0  0  0  0  0
  160.9688   42.7240  143.0752 C   0  0  0  0  0  0  0  0  0  0  0  0
  1  3  2  6  0  0  0
  1 32  1  0  0  0  0
  1  2  1  0  0  0  0
  1  4  1  0  0  0  0
  4  5  1  0  0  0  0
  6  5  1  6  0  0  0
  7  6  1  0  0  0  0
  8  6  1  0  0  0  0
  8 10  1  0  0  0  0
  8  9  1  1  0  0  0
 10 11  1  1  0  0  0
 12 13  1  6  0  0  0
 12  7  1  0  0  0  0
 12 10  1  0  0  0  0
 14 13  1  0  0  0  0
 15 16  1  0  0  0  0
 15 14  2  0  0  0  0
 16 23  2  0  0  0  0
 17 16  1  0  0  0  0
 17 19  1  0  0  0  0
 18 17  2  0  0  0  0
 19 20  2  0  0  0  0
 20 22  1  0  0  0  0
 20 21  1  0  0  0  0
 23 13  1  0  0  0  0
 23 22  1  0  0  0  0
 24 25  2  1  0  0  0
 24  9  1  0  0  0  0
 24 26  1  0  0  0  0
 27 28  1  0  0  0  0
 27 24  1  0  0  0  0
 29 30  1  6  0  0  0
 29 28  1  0  0  0  0
 31 32  1  6  0  0  0
 31 29  1  0  0  0  0
 33 34  1  6  0  0  0
 33 35  1  0  0  0  0
 33 31  1  0  0  0  0
 35 36  1  1  0  0  0
 35 30  1  0  0  0  0
 36 37  1  0  0  0  0
 38 37  2  0  0  0  0
 39 38  1  0  0  0  0
 40 41  2  0  0  0  0
 40 39  1  0  0  0  0
 42 40  1  0  0  0  0
 43 42  2  0  0  0  0
 43 45  1  0  0  0  0
 44 43  1  0  0  0  0
 45 46  1  0  0  0  0
 46 39  2  0  0  0  0
 46 36  1  0  0  0  0
M  END
>  <CHROM.1>
32.52853131,179.93230714,158.54510725,45.30877577,144.35512825,-0.12873226
0.13924387,-0.08907860

>  <Name>
lig.pdb

>  <RI>
0

>  <Rbt.Current_Directory>
/home/itssahil/PROJECTS/Mol_Feturizer/New_Systems/rnas/4yb0

>  <Rbt.Executable>
rbdock ($Id: //depot/dev/client3/rdock/2013.1/src/exe/rbdock.cxx#4 $)

>  <Rbt.Library>
libRbt.so (2013.1, Build901 2013/11/27)

>  <Rbt.Parameter_File>
/export/apps/rDock/src/rDock_2013.1_src/data/scripts/dock_solv.prm

>  <Rbt.Receptor>
prm/pocket_docking_4.prm

>  <SCORE>
-27.2175

>  <SCORE.INTER>
-27.4123

>  <SCORE.INTER.CONST>
1

>  <SCORE.INTER.POLAR>
0

>  <SCORE.INTER.ROT>
2

>  <SCORE.INTER.SOLV>
22.7724

>  <SCORE.INTER.VDW>
-30.799

>  <SCORE.INTER.norm>
-0.595919

>  <SCORE.INTRA>
0.194755

>  <SCORE.INTRA.DIHEDRAL>
0.0149596

>  <SCORE.INTRA.DIHEDRAL.0>
4.74153

>  <SCORE.INTRA.POLAR>
0

>  <SCORE.INTRA.POLAR.0>
0

>  <SCORE.INTRA.REPUL>
0.0489675

>  <SCORE.INTRA.REPUL.0>
0

>  <SCORE.INTRA.SOLV>
3.32061

>  <SCORE.INTRA.SOLV.lig_0>
-60.4375

>  <SCORE.INTRA.VDW>
-1.71787

>  <SCORE.INTRA.VDW.0>
-1.83689

>  <SCORE.INTRA.norm>
0.0042338

>  <SCORE.RESTR>
0

>  <SCORE.RESTR.CAVITY>
0

>  <SCORE.RESTR.norm>
0

>  <SCORE.SYSTEM>
0

>  <SCORE.SYSTEM.CONST>
0

>  <SCORE.SYSTEM.DIHEDRAL>
0

>  <SCORE.SYSTEM.SOLV>
0

>  <SCORE.SYSTEM.norm>
0

>  <SCORE.heavy>
46

>  <SCORE.norm>
-0.591685

>  <RMSD>
3.223

$$$$
lig.pdb
 OpenBabel11021811523D
libRbt.so/2013.1/901 2013/11/27
 46 52  0  0  0  0  0  0  0  0999 V2000
  160.8345   47.8135  146.7815 P   0  0  2  0  0  0  0  0  0  0  0  0
  161.0361   49.2407  147.2420 O   0  0  0  0  0  0  0  0  0  0  0  0
  160.7736   47.5839  145.2934 O   0  0  0  0  0  0  0  0  0  0  0  0
  159.5222   47.1648  147.4463 O   0  0  0  0  0  0  0  0  0  0  0  0
  158.8162   47.8199  148.4921 C   0  0  0  0  0  0  0  0  0  0  0  0
  157.8873   46.8380  149.1870 C   0  0  1  0  0  0  0  0  0  0  0  0
  156.5645   47.0884  148.7337 O   0  0  0  0  0  0  0  0  0  0  0  0
  158.1601   45.3646  148.9120 C   0  0  1  0  0  0  0  0  0  0  0  0
  158.8089   44.7815  150.0325 O   0  0  0  0  0  0  0  0  0  0  0  0
  156.7762   44.7641  148.8056 C   0  0  1  0  0  0  0  0  0  0  0  0
  156.3414   44.3294  150.0956 O   0  0  0  0  0  0  0  0  0  0  0  0
  155.8746   45.8937  148.4001 C   0  0  2  0  0  0  0  0  0  0  0  0
  155.6762   45.8551  146.9318 N   0  0  0  0  0  0  0  0  0  0  0  0
  156.5121   46.3721  146.0145 C   0  0  0  0  0  0  0  0  0  0  0  0
  156.0272   46.1791  144.7643 N   0  0  0  0  0  0  0  0  0  0  0  0
  154.8559   45.5263  144.8680 C   0  0  0  0  0  0  0  0  0  0  0  0
  153.8287   45.0125  143.9316 C   0  0  0  0  0  0  0  0  0  0  0  0
  153.9663   45.1681  142.6944 O   0  0  0  0  0  0  0  0  0  0  0  0
  152.7602   44.3861  144.4536 N   0  0  0  0  0  0  0  0  0  0  0  0
  152.6165   44.2231  145.7824 C   0  0  0  0  0  0  0  0  0  0  0  0
  151.5233   43.5807  146.2509 N   0  0  0  0  0  0  0  0  0  0  0  0
  153.5145   44.6669  146.6910 N   0  0  0  0  0  0  0  0  0  0  0  0
  154.6333   45.3147  146.3017 C   0  0  0  0  0  0  0  0  0  0  0  0
  159.4949   43.3103  149.9999 P   0  0  2  0  0  0  0  0  0  0  0  0
  158.5196   42.3216  149.4088 O   0  0  0  0  0  0  0  0  0  0  0  0
  160.0865   43.0923  151.3800 O   0  0  0  0  0  0  0  0  0  0  0  0
  160.6899   43.5093  148.9314 O   0  0  0  0  0  0  0  0  0  0  0  0
  161.9107   44.1312  149.3305 C   0  0  0  0  0  0  0  0  0  0  0  0
  162.7328   44.6583  148.1502 C   0  0  1  0  0  0  0  0  0  0  0  0
  163.3236   43.5572  147.4565 O   0  0  0  0  0  0  0  0  0  0  0  0
  161.9424   45.4586  147.1173 C   0  0  1  0  0  0  0  0  0  0  0  0
  162.0011   46.8634  147.3609 O   0  0  0  0  0  0  0  0  0  0  0  0
  162.6379   45.0879  145.8208 C   0  0  1  0  0  0  0  0  0  0  0  0
  163.7558   45.9470  145.5794 O   0  0  0  0  0  0  0  0  0  0  0  0
  163.1782   43.6902  146.0401 C   0  0  2  0  0  0  0  0  0  0  0  0
  162.1849   42.6946  145.5665 N   0  0  0  0  0  0  0  0  0  0  0  0
  161.6401   41.7122  146.3113 C   0  0  0  0  0  0  0  0  0  0  0  0
  160.7505   40.9680  145.5971 N   0  0  0  0  0  0  0  0  0  0  0  0
  160.7095   41.4824  144.3578 C   0  0  0  0  0  0  0  0  0  0  0  0
  159.9929   41.1749  143.0938 C   0  0  0  0  0  0  0  0  0  0  0  0
  159.1675   40.2408  143.0027 O   0  0  0  0  0  0  0  0  0  0  0  0
  160.2405   41.9551  142.0405 N   0  0  0  0  0  0  0  0  0  0  0  0
  161.1128   42.9738  142.0890 C   0  0  0  0  0  0  0  0  0  0  0  0
  161.2953   43.6846  140.9662 N   0  0  0  0  0  0  0  0  0  0  0  0
  161.8099   43.3109  143.1992 N   0  0  0  0  0  0  0  0  0  0  0  0
  161.6565   42.6154  144.3456 C   0  0  0  0  0  0  0  0  0  0  0  0
  1  3  2  6  0  0  0
  1 32  1  0  0  0  0
  1  2  1  0  0  0  0
  1  4  1  0  0  0  0
  4  5  1  0  0  0  0
  6  5  1  6  0  0  0
  7  6  1  0  0  0  0
  8  6  1  0  0  0  0
  8 10  1  0  0  0  0
  8  9  1  1  0  0  0
 10 11  1  1  0  0  0
 12 13  1  6  0  0  0
 12  7  1  0  0  0  0
 12 10  1  0  0  0  0
 14 13  1  0  0  0  0
 15 16  1  0  0  0  0
 15 14  2  0  0  0  0
 16 23  2  0  0  0  0
 17 16  1  0  0  0  0
 17 19  1  0  0  0  0
 18 17  2  0  0  0  0
 19 20  2  0  0  0  0
 20 22  1  0  0  0  0
 20 21  1  0  0  0  0
 23 13  1  0  0  0  0
 23 22  1  0  0  0  0
 24 25  2  6  0  0  0
 24  9  1  0  0  0  0
 24 26  1  0  0  0  0
 27 28  1  0  0  0  0
 27 24  1  0  0  0  0
 29 30  1  6  0  0  0
 29 28  1  0  0  0  0
 31 32  1  1  0  0  0
 31 29  1  0  0  0  0
 33 34  1  1  0  0  0
 33 35  1  0  0  0  0
 33 31  1  0  0  0  0
 35 36  1  1  0  0  0
 35 30  1  0  0  0  0
 36 37  1  0  0  0  0
 38 37  2  0  0  0  0
 39 38  1  0  0  0  0
 40 41  2  0  0  0  0
 40 39  1  0  0  0  0
 42 40  1  0  0  0  0
 43 42  2  0  0  0  0
 43 45  1  0  0  0  0
 44 43  1  0  0  0  0
 45 46  1  0  0  0  0
 46 39  2  0  0  0  0
 46 36  1  0  0  0  0
M  END
>  <CHROM.1>
32.15561100,-7.98525235,158.98896377,44.64121473,146.59365713,-0.06598530
-0.10661973,1.11111430

>  <Name>
lig.pdb

>  <RI>
0

>  <Rbt.Current_Directory>
/home/itssahil/PROJECTS/Mol_Feturizer/New_Systems/rnas/4yb0

>  <Rbt.Executable>
rbdock ($Id: //depot/dev/client3/rdock/2013.1/src/exe/rbdock.cxx#4 $)

>  <Rbt.Library>
libRbt.so (2013.1, Build901 2013/11/27)

>  <Rbt.Parameter_File>
/export/apps/rDock/src/rDock_2013.1_src/data/scripts/dock_solv.prm

>  <Rbt.Receptor>
prm/pocket_docking_7.prm

>  <SCORE>
-23.4307

>  <SCORE.INTER>
-23.2267

>  <SCORE.INTER.CONST>
1

>  <SCORE.INTER.POLAR>
0

>  <SCORE.INTER.ROT>
2

>  <SCORE.INTER.SOLV>
21.4096

>  <SCORE.INTER.VDW>
-27.5543

>  <SCORE.INTER.norm>
-0.504928

>  <SCORE.INTRA>
-0.204025

>  <SCORE.INTRA.DIHEDRAL>
-0.0127344

>  <SCORE.INTRA.DIHEDRAL.0>
4.74153

>  <SCORE.INTRA.POLAR>
0

>  <SCORE.INTRA.POLAR.0>
0

>  <SCORE.INTRA.REPUL>
0

>  <SCORE.INTRA.REPUL.0>
0

>  <SCORE.INTRA.SOLV>
0.0206229

>  <SCORE.INTRA.SOLV.lig_0>
-60.4375

>  <SCORE.INTRA.VDW>
-0.207969

>  <SCORE.INTRA.VDW.0>
-1.83689

>  <SCORE.INTRA.norm>
-0.00443533

>  <SCORE.RESTR>
0

>  <SCORE.RESTR.CAVITY>
0

>  <SCORE.RESTR.norm>
0

>  <SCORE.SYSTEM>
0

>  <SCORE.SYSTEM.CONST>
0

>  <SCORE.SYSTEM.DIHEDRAL>
0

>  <SCORE.SYSTEM.SOLV>
0

>  <SCORE.SYSTEM.norm>
0

>  <SCORE.heavy>
46

>  <SCORE.norm>
-0.509364

>  <RMSD>
3.461

$$$$
lig.pdb
 OpenBabel11021811523D
libRbt.so/2013.1/901 2013/11/27
 46 52  0  0  0  0  0  0  0  0999 V2000
  160.2624   46.7867  148.0188 P   0  0  2  0  0  0  0  0  0  0  0  0
  160.2409   47.6287  149.2758 O   0  0  0  0  0  0  0  0  0  0  0  0
  160.2673   47.5279  146.7067 O   0  0  0  0  0  0  0  0  0  0  0  0
  159.0468   45.7344  147.9994 O   0  0  0  0  0  0  0  0  0  0  0  0
  158.2300   45.5197  149.1429 C   0  0  0  0  0  0  0  0  0  0  0  0
  157.4423   44.2297  148.9844 C   0  0  1  0  0  0  0  0  0  0  0  0
  156.1068   44.5697  148.6398 O   0  0  0  0  0  0  0  0  0  0  0  0
  157.9357   43.2852  147.8956 C   0  0  1  0  0  0  0  0  0  0  0  0
  158.6401   42.2024  148.4855 O   0  0  0  0  0  0  0  0  0  0  0  0
  156.6586   42.7428  147.2944 C   0  0  1  0  0  0  0  0  0  0  0  0
  156.2659   41.5582  147.9905 O   0  0  0  0  0  0  0  0  0  0  0  0
  155.6084   43.7789  147.5717 C   0  0  2  0  0  0  0  0  0  0  0  0
  155.4487   44.6419  146.3773 N   0  0  0  0  0  0  0  0  0  0  0  0
  156.3999   45.4309  145.8481 C   0  0  0  0  0  0  0  0  0  0  0  0
  155.9217   46.0978  144.7702 N   0  0  0  0  0  0  0  0  0  0  0  0
  154.6377   45.7382  144.5939 C   0  0  0  0  0  0  0  0  0  0  0  0
  153.5535   46.0689  143.6394 C   0  0  0  0  0  0  0  0  0  0  0  0
  153.7560   46.8883  142.7112 O   0  0  0  0  0  0  0  0  0  0  0  0
  152.3635   45.4672  143.8077 N   0  0  0  0  0  0  0  0  0  0  0  0
  152.1508   44.5896  144.8065 C   0  0  0  0  0  0  0  0  0  0  0  0
  150.9349   44.0109  144.9246 N   0  0  0  0  0  0  0  0  0  0  0  0
  153.0949   44.2438  145.7109 N   0  0  0  0  0  0  0  0  0  0  0  0
  154.3348   44.7757  145.6577 C   0  0  0  0  0  0  0  0  0  0  0  0
  159.5369   41.1515  147.6326 P   0  0  2  0  0  0  0  0  0  0  0  0
  158.7312   40.6514  146.4582 O   0  0  0  0  0  0  0  0  0  0  0  0
  160.1251   40.1847  148.6431 O   0  0  0  0  0  0  0  0  0  0  0  0
  160.7113   42.0937  147.0476 O   0  0  0  0  0  0  0  0  0  0  0  0
  161.8181   42.4539  147.8734 C   0  0  0  0  0  0  0  0  0  0  0  0
  162.5776   43.6819  147.3618 C   0  0  1  0  0  0  0  0  0  0  0  0
  163.3393   43.3196  146.2079 O   0  0  0  0  0  0  0  0  0  0  0  0
  161.6993   44.8641  146.9582 C   0  0  1  0  0  0  0  0  0  0  0  0
  161.5443   45.8090  148.0163 O   0  0  0  0  0  0  0  0  0  0  0  0
  162.4690   45.4546  145.7916 C   0  0  1  0  0  0  0  0  0  0  0  0
  163.4522   46.3867  146.2503 O   0  0  0  0  0  0  0  0  0  0  0  0
  163.2055   44.2890  145.1651 C   0  0  2  0  0  0  0  0  0  0  0  0
  162.3806   43.7085  144.0766 N   0  0  0  0  0  0  0  0  0  0  0  0
  162.5156   42.4697  143.5631 C   0  0  0  0  0  0  0  0  0  0  0  0
  161.6021   42.2242  142.5831 N   0  0  0  0  0  0  0  0  0  0  0  0
  160.8484   43.3283  142.4595 C   0  0  0  0  0  0  0  0  0  0  0  0
  159.7113   43.7586  141.6065 C   0  0  0  0  0  0  0  0  0  0  0  0
  159.1968   43.0090  140.7490 O   0  0  0  0  0  0  0  0  0  0  0  0
  159.2262   44.9860  141.8010 N   0  0  0  0  0  0  0  0  0  0  0  0
  159.7394   45.8263  142.7128 C   0  0  0  0  0  0  0  0  0  0  0  0
  159.1828   47.0425  142.8143 N   0  0  0  0  0  0  0  0  0  0  0  0
  160.7791   45.5114  143.5204 N   0  0  0  0  0  0  0  0  0  0  0  0
  161.3678   44.2995  143.4431 C   0  0  0  0  0  0  0  0  0  0  0  0
  1  3  2  6  0  0  0
  1 32  1  0  0  0  0
  1  2  1  0  0  0  0
  1  4  1  0  0  0  0
  4  5  1  0  0  0  0
  6  5  1  6  0  0  0
  7  6  1  0  0  0  0
  8  6  1  0  0  0  0
  8 10  1  0  0  0  0
  8  9  1  1  0  0  0
 10 11  1  1  0  0  0
 12 13  1  6  0  0  0
 12  7  1  0  0  0  0
 12 10  1  0  0  0  0
 14 13  1  0  0  0  0
 15 16  1  0  0  0  0
 15 14  2  0  0  0  0
 16 23  2  0  0  0  0
 17 16  1  0  0  0  0
 17 19  1  0  0  0  0
 18 17  2  0  0  0  0
 19 20  2  0  0  0  0
 20 22  1  0  0  0  0
 20 21  1  0  0  0  0
 23 13  1  0  0  0  0
 23 22  1  0  0  0  0
 24 25  2  6  0  0  0
 24  9  1  0  0  0  0
 24 26  1  0  0  0  0
 27 28  1  0  0  0  0
 27 24  1  0  0  0  0
 29 30  1  6  0  0  0
 29 28  1  0  0  0  0
 31 32  1  1  0  0  0
 31 29  1  0  0  0  0
 33 34  1  1  0  0  0
 33 35  1  0  0  0  0
 33 31  1  0  0  0  0
 35 36  1  6  0  0  0
 35 30  1  0  0  0  0
 36 37  1  0  0  0  0
 38 37  2  0  0  0  0
 39 38  1  0  0  0  0
 40 41  2  0  0  0  0
 40 39  1  0  0  0  0
 42 40  1  0  0  0  0
 43 42  2  0  0  0  0
 43 45  1  0  0  0  0
 44 43  1  0  0  0  0
 45 46  1  0  0  0  0
 46 39  2  0  0  0  0
 46 36  1  0  0  0  0
M  END
>  <CHROM.1>
52.79984522,-45.16391399,158.70739236,44.31383087,145.91506603,0.14303340
-0.07526303,1.82500330

>  <Name>
lig.pdb

>  <RI>
0

>  <Rbt.Current_Directory>
/home/itssahil/PROJECTS/Mol_Feturizer/New_Systems/rnas/4yb0

>  <Rbt.Executable>
rbdock ($Id: //depot/dev/client3/rdock/2013.1/src/exe/rbdock.cxx#4 $)

>  <Rbt.Library>
libRbt.so (2013.1, Build901 2013/11/27)

>  <Rbt.Parameter_File>
/export/apps/rDock/src/rDock_2013.1_src/data/scripts/dock_solv.prm

>  <Rbt.Receptor>
prm/pocket_docking_5.prm

>  <SCORE>
-14.6533

>  <SCORE.INTER>
-14.7

>  <SCORE.INTER.CONST>
1

>  <SCORE.INTER.POLAR>
0

>  <SCORE.INTER.ROT>
2

>  <SCORE.INTER.SOLV>
22.6399

>  <SCORE.INTER.VDW>
-22.28

>  <SCORE.INTER.norm>
-0.319566

>  <SCORE.INTRA>
0.0467171

>  <SCORE.INTRA.DIHEDRAL>
0.00142231

>  <SCORE.INTRA.DIHEDRAL.0>
4.74153

>  <SCORE.INTRA.POLAR>
0

>  <SCORE.INTRA.POLAR.0>
0

>  <SCORE.INTRA.REPUL>
0

>  <SCORE.INTRA.REPUL.0>
0

>  <SCORE.INTRA.SOLV>
0.28072

>  <SCORE.INTRA.SOLV.lig_0>
-60.4375

>  <SCORE.INTRA.VDW>
-0.0943541

>  <SCORE.INTRA.VDW.0>
-1.83689

>  <SCORE.INTRA.norm>
0.00101559

>  <SCORE.RESTR>
0

>  <SCORE.RESTR.CAVITY>
0

>  <SCORE.RESTR.norm>
0

>  <SCORE.SYSTEM>
0

>  <SCORE.SYSTEM.CONST>
0

>  <SCORE.SYSTEM.DIHEDRAL>
0

>  <SCORE.SYSTEM.SOLV>
0

>  <SCORE.SYSTEM.norm>
0

>  <SCORE.heavy>
46

>  <SCORE.norm>
-0.31855

>  <RMSD>
3.568

$$$$
lig.pdb
 OpenBabel11021811523D
libRbt.so/2013.1/901 2013/11/27
 46 52  0  0  0  0  0  0  0  0999 V2000
  160.5221   47.0118  148.0789 P   0  0  2  0  0  0  0  0  0  0  0  0
  160.5732   47.6382  149.4553 O   0  0  0  0  0  0  0  0  0  0  0  0
  160.4390   47.9561  146.9074 O   0  0  0  0  0  0  0  0  0  0  0  0
  159.3158   45.9553  147.9620 O   0  0  0  0  0  0  0  0  0  0  0  0
  158.5740   45.5434  149.1027 C   0  0  0  0  0  0  0  0  0  0  0  0
  157.7877   44.2825  148.7841 C   0  0  1  0  0  0  0  0  0  0  0  0
  156.4307   44.6503  148.5813 O   0  0  0  0  0  0  0  0  0  0  0  0
  158.2189   43.5361  147.5280 C   0  0  1  0  0  0  0  0  0  0  0  0
  158.9672   42.3846  147.8895 O   0  0  0  0  0  0  0  0  0  0  0  0
  156.9107   43.0759  146.9250 C   0  0  1  0  0  0  0  0  0  0  0  0
  156.5715   41.7873  147.4412 O   0  0  0  0  0  0  0  0  0  0  0  0
  155.8722   44.0345  147.4308 C   0  0  2  0  0  0  0  0  0  0  0  0
  155.6313   45.0769  146.4051 N   0  0  0  0  0  0  0  0  0  0  0  0
  156.3268   46.2196  146.2710 C   0  0  0  0  0  0  0  0  0  0  0  0
  155.8398   46.9570  145.2442 N   0  0  0  0  0  0  0  0  0  0  0  0
  154.8098   46.2847  144.7003 C   0  0  0  0  0  0  0  0  0  0  0  0
  153.8588   46.5005  143.5844 C   0  0  0  0  0  0  0  0  0  0  0  0
  153.9215   47.5454  142.8930 O   0  0  0  0  0  0  0  0  0  0  0  0
  152.9402   45.5480  143.3492 N   0  0  0  0  0  0  0  0  0  0  0  0
  152.8761   44.4289  144.0952 C   0  0  0  0  0  0  0  0  0  0  0  0
  151.9341   43.5024  143.8100 N   0  0  0  0  0  0  0  0  0  0  0  0
  153.7116   44.1697  145.1266 N   0  0  0  0  0  0  0  0  0  0  0  0
  154.6807   45.0443  145.4713 C   0  0  0  0  0  0  0  0  0  0  0  0
  159.8165   41.5020  146.8238 P   0  0  2  0  0  0  0  0  0  0  0  0
  158.9425   41.1849  145.6348 O   0  0  0  0  0  0  0  0  0  0  0  0
  160.4744   40.3946  147.6256 O   0  0  0  0  0  0  0  0  0  0  0  0
  160.9448   42.5474  146.3301 O   0  0  0  0  0  0  0  0  0  0  0  0
  162.0984   42.7883  147.1348 C   0  0  0  0  0  0  0  0  0  0  0  0
  162.8150   44.0963  146.7851 C   0  0  1  0  0  0  0  0  0  0  0  0
  163.5054   43.9396  145.5435 O   0  0  0  0  0  0  0  0  0  0  0  0
  161.9041   45.3126  146.6338 C   0  0  1  0  0  0  0  0  0  0  0  0
  161.8087   46.0704  147.8392 O   0  0  0  0  0  0  0  0  0  0  0  0
  162.5946   46.0981  145.5345 C   0  0  1  0  0  0  0  0  0  0  0  0
  163.5975   46.9606  146.0784 O   0  0  0  0  0  0  0  0  0  0  0  0
  163.2990   45.0628  144.6827 C   0  0  2  0  0  0  0  0  0  0  0  0
  162.4119   44.6521  143.5663 N   0  0  0  0  0  0  0  0  0  0  0  0
  161.9085   45.4698  142.6205 C   0  0  0  0  0  0  0  0  0  0  0  0
  161.1382   44.7941  141.7231 N   0  0  0  0  0  0  0  0  0  0  0  0
  161.1453   43.5026  142.0892 C   0  0  0  0  0  0  0  0  0  0  0  0
  160.5299   42.2454  141.5928 C   0  0  0  0  0  0  0  0  0  0  0  0
  159.8100   42.2104  140.5717 O   0  0  0  0  0  0  0  0  0  0  0  0
  160.7917   41.1242  142.2665 N   0  0  0  0  0  0  0  0  0  0  0  0
  161.5631   41.1081  143.3645 C   0  0  0  0  0  0  0  0  0  0  0  0
  161.7486   39.9266  143.9719 N   0  0  0  0  0  0  0  0  0  0  0  0
  162.1512   42.2116  143.8831 N   0  0  0  0  0  0  0  0  0  0  0  0
  161.9830   43.4181  143.3024 C   0  0  0  0  0  0  0  0  0  0  0  0
  1  3  2  6  0  0  0
  1 32  1  0  0  0  0
  1  2  1  0  0  0  0
  1  4  1  0  0  0  0
  4  5  1  0  0  0  0
  6  5  1  6  0  0  0
  7  6  1  0  0  0  0
  8  6  1  0  0  0  0
  8 10  1  0  0  0  0
  8  9  1  1  0  0  0
 10 11  1  1  0  0  0
 12 13  1  6  0  0  0
 12  7  1  0  0  0  0
 12 10  1  0  0  0  0
 14 13  1  0  0  0  0
 15 16  1  0  0  0  0
 15 14  2  0  0  0  0
 16 23  2  0  0  0  0
 17 16  1  0  0  0  0
 17 19  1  0  0  0  0
 18 17  2  0  0  0  0
 19 20  2  0  0  0  0
 20 22  1  0  0  0  0
 20 21  1  0  0  0  0
 23 13  1  0  0  0  0
 23 22  1  0  0  0  0
 24 25  2  6  0  0  0
 24  9  1  0  0  0  0
 24 26  1  0  0  0  0
 27 28  1  0  0  0  0
 27 24  1  0  0  0  0
 29 30  1  6  0  0  0
 29 28  1  0  0  0  0
 31 32  1  1  0  0  0
 31 29  1  0  0  0  0
 33 34  1  1  0  0  0
 33 35  1  0  0  0  0
 33 31  1  0  0  0  0
 35 36  1  6  0  0  0
 35 30  1  0  0  0  0
 36 37  1  0  0  0  0
 38 37  2  0  0  0  0
 39 38  1  0  0  0  0
 40 41  2  0  0  0  0
 40 39  1  0  0  0  0
 42 40  1  0  0  0  0
 43 42  2  0  0  0  0
 43 45  1  0  0  0  0
 44 43  1  0  0  0  0
 45 46  1  0  0  0  0
 46 39  2  0  0  0  0
 46 36  1  0  0  0  0
M  END
>  <CHROM.1>
28.33301069,174.19081137,159.09925914,44.25812259,145.66470288,-0.10088052
-0.14696467,0.93609050

>  <Name>
lig.pdb

>  <RI>
0

>  <Rbt.Current_Directory>
/home/itssahil/PROJECTS/Mol_Feturizer/New_Systems/rnas/4yb0

>  <Rbt.Executable>
rbdock ($Id: //depot/dev/client3/rdock/2013.1/src/exe/rbdock.cxx#4 $)

>  <Rbt.Library>
libRbt.so (2013.1, Build901 2013/11/27)

>  <Rbt.Parameter_File>
/export/apps/rDock/src/rDock_2013.1_src/data/scripts/dock_solv.prm

>  <Rbt.Receptor>
prm/pocket_docking_6.prm

>  <SCORE>
-36.2299

>  <SCORE.INTER>
-35.7518

>  <SCORE.INTER.CONST>
1

>  <SCORE.INTER.POLAR>
0

>  <SCORE.INTER.ROT>
2

>  <SCORE.INTER.SOLV>
24.7451

>  <SCORE.INTER.VDW>
-37.0162

>  <SCORE.INTER.norm>
-0.777213

>  <SCORE.INTRA>
-0.478139

>  <SCORE.INTRA.DIHEDRAL>
0.0322506

>  <SCORE.INTRA.DIHEDRAL.0>
4.74153

>  <SCORE.INTRA.POLAR>
0

>  <SCORE.INTRA.POLAR.0>
0

>  <SCORE.INTRA.REPUL>
0

>  <SCORE.INTRA.REPUL.0>
0

>  <SCORE.INTRA.SOLV>
2.31823

>  <SCORE.INTRA.SOLV.lig_0>
-60.4375

>  <SCORE.INTRA.VDW>
-1.65338

>  <SCORE.INTRA.VDW.0>
-1.83689

>  <SCORE.INTRA.norm>
-0.0103943

>  <SCORE.RESTR>
0

>  <SCORE.RESTR.CAVITY>
0

>  <SCORE.RESTR.norm>
0

>  <SCORE.SYSTEM>
0

>  <SCORE.SYSTEM.CONST>
0

>  <SCORE.SYSTEM.DIHEDRAL>
0

>  <SCORE.SYSTEM.SOLV>
0

>  <SCORE.SYSTEM.norm>
0

>  <SCORE.heavy>
46

>  <SCORE.norm>
-0.787607

>  <RMSD>
3.793

$$$$
lig.pdb
 OpenBabel11021811523D
libRbt.so/2013.1/901 2013/11/27
 46 52  0  0  0  0  0  0  0  0999 V2000
  160.5369   46.9948  148.1178 P   0  0  2  0  0  0  0  0  0  0  0  0
  160.5868   47.6112  149.4988 O   0  0  0  0  0  0  0  0  0  0  0  0
  160.4437   47.9472  146.9536 O   0  0  0  0  0  0  0  0  0  0  0  0
  159.3382   45.9301  147.9959 O   0  0  0  0  0  0  0  0  0  0  0  0
  158.6025   45.5041  149.1354 C   0  0  0  0  0  0  0  0  0  0  0  0
  157.8248   44.2397  148.8092 C   0  0  1  0  0  0  0  0  0  0  0  0
  156.4646   44.5988  148.6125 O   0  0  0  0  0  0  0  0  0  0  0  0
  158.2585   43.5060  147.5464 C   0  0  1  0  0  0  0  0  0  0  0  0
  159.0163   42.3575  147.8974 O   0  0  0  0  0  0  0  0  0  0  0  0
  156.9522   43.0405  146.9432 C   0  0  1  0  0  0  0  0  0  0  0  0
  156.6240   41.7456  147.4505 O   0  0  0  0  0  0  0  0  0  0  0  0
  155.9078   43.9875  147.4588 C   0  0  2  0  0  0  0  0  0  0  0  0
  155.6565   45.0358  146.4416 N   0  0  0  0  0  0  0  0  0  0  0  0
  156.3236   46.1979  146.3329 C   0  0  0  0  0  0  0  0  0  0  0  0
  155.8344   46.9349  145.3068 N   0  0  0  0  0  0  0  0  0  0  0  0
  154.8318   46.2424  144.7375 C   0  0  0  0  0  0  0  0  0  0  0  0
  153.8943   46.4467  143.6082 C   0  0  0  0  0  0  0  0  0  0  0  0
  153.9407   47.5014  142.9304 O   0  0  0  0  0  0  0  0  0  0  0  0
  153.0053   45.4733  143.3461 N   0  0  0  0  0  0  0  0  0  0  0  0
  152.9585   44.3438  144.0776 C   0  0  0  0  0  0  0  0  0  0  0  0
  152.0463   43.3964  143.7653 N   0  0  0  0  0  0  0  0  0  0  0  0
  153.7832   44.0941  145.1198 N   0  0  0  0  0  0  0  0  0  0  0  0
  154.7229   44.9896  145.4914 C   0  0  0  0  0  0  0  0  0  0  0  0
  159.8695   41.4894  146.8230 P   0  0  2  0  0  0  0  0  0  0  0  0
  158.9949   41.1747  145.6338 O   0  0  0  0  0  0  0  0  0  0  0  0
  160.5377   40.3810  147.6147 O   0  0  0  0  0  0  0  0  0  0  0  0
  160.9886   42.5469  146.3343 O   0  0  0  0  0  0  0  0  0  0  0  0
  162.1424   42.7904  147.1379 C   0  0  0  0  0  0  0  0  0  0  0  0
  162.8483   44.1063  146.7963 C   0  0  1  0  0  0  0  0  0  0  0  0
  163.5367   43.9642  145.5519 O   0  0  0  0  0  0  0  0  0  0  0  0
  161.9280   45.3169  146.6565 C   0  0  1  0  0  0  0  0  0  0  0  0
  161.8299   46.0648  147.8677 O   0  0  0  0  0  0  0  0  0  0  0  0
  162.6097   46.1157  145.5614 C   0  0  1  0  0  0  0  0  0  0  0  0
  163.6075   46.9817  146.1094 O   0  0  0  0  0  0  0  0  0  0  0  0
  163.3197   45.0923  144.7001 C   0  0  2  0  0  0  0  0  0  0  0  0
  162.4328   44.6833  143.5828 N   0  0  0  0  0  0  0  0  0  0  0  0
  161.9435   45.4995  142.6284 C   0  0  0  0  0  0  0  0  0  0  0  0
  161.1694   44.8259  141.7327 N   0  0  0  0  0  0  0  0  0  0  0  0
  161.1595   43.5372  142.1090 C   0  0  0  0  0  0  0  0  0  0  0  0
  160.5314   42.2836  141.6195 C   0  0  0  0  0  0  0  0  0  0  0  0
  159.8158   42.2491  140.5954 O   0  0  0  0  0  0  0  0  0  0  0  0
  160.7768   41.1646  142.3033 N   0  0  0  0  0  0  0  0  0  0  0  0
  161.5430   41.1481  143.4049 C   0  0  0  0  0  0  0  0  0  0  0  0
  161.7116   39.9693  144.0223 N   0  0  0  0  0  0  0  0  0  0  0  0
  162.1418   42.2486  143.9175 N   0  0  0  0  0  0  0  0  0  0  0  0
  161.9905   43.4525  143.3266 C   0  0  0  0  0  0  0  0  0  0  0  0
  1  3  2  6  0  0  0
  1 32  1  0  0  0  0
  1  2  1  0  0  0  0
  1  4  1  0  0  0  0
  4  5  1  0  0  0  0
  6  5  1  6  0  0  0
  7  6  1  0  0  0  0
  8  6  1  0  0  0  0
  8 10  1  0  0  0  0
  8  9  1  1  0  0  0
 10 11  1  1  0  0  0
 12 13  1  6  0  0  0
 12  7  1  0  0  0  0
 12 10  1  0  0  0  0
 14 13  1  0  0  0  0
 15 16  1  0  0  0  0
 15 14  2  0  0  0  0
 16 23  2  0  0  0  0
 17 16  1  0  0  0  0
 17 19  1  0  0  0  0
 18 17  2  0  0  0  0
 19 20  2  0  0  0  0
 20 22  1  0  0  0  0
 20 21  1  0  0  0  0
 23 13  1  0  0  0  0
 23 22  1  0  0  0  0
 24 25  2  6  0  0  0
 24  9  1  0  0  0  0
 24 26  1  0  0  0  0
 27 28  1  0  0  0  0
 27 24  1  0  0  0  0
 29 30  1  6  0  0  0
 29 28  1  0  0  0  0
 31 32  1  1  0  0  0
 31 29  1  0  0  0  0
 33 34  1  1  0  0  0
 33 35  1  0  0  0  0
 33 31  1  0  0  0  0
 35 36  1  6  0  0  0
 35 30  1  0  0  0  0
 36 37  1  0  0  0  0
 38 37  2  0  0  0  0
 39 38  1  0  0  0  0
 40 41  2  0  0  0  0
 40 39  1  0  0  0  0
 42 40  1  0  0  0  0
 43 42  2  0  0  0  0
 43 45  1  0  0  0  0
 44 43  1  0  0  0  0
 45 46  1  0  0  0  0
 46 39  2  0  0  0  0
 46 36  1  0  0  0  0
M  END
>  <CHROM.1>
26.75745715,175.66563245,159.12773533,44.24596308,145.68566114,-0.08484211
-0.13982320,0.94303563

>  <Name>
lig.pdb

>  <RI>
0

>  <Rbt.Current_Directory>
/home/itssahil/PROJECTS/Mol_Feturizer/New_Systems/rnas/4yb0

>  <Rbt.Executable>
rbdock ($Id: //depot/dev/client3/rdock/2013.1/src/exe/rbdock.cxx#4 $)

>  <Rbt.Library>
libRbt.so (2013.1, Build901 2013/11/27)

>  <Rbt.Parameter_File>
/export/apps/rDock/src/rDock_2013.1_src/data/scripts/dock_solv.prm

>  <Rbt.Receptor>
prm/pocket_docking_5.prm

>  <SCORE>
-36.2271

>  <SCORE.INTER>
-35.8266

>  <SCORE.INTER.CONST>
1

>  <SCORE.INTER.POLAR>
0

>  <SCORE.INTER.ROT>
2

>  <SCORE.INTER.SOLV>
24.853

>  <SCORE.INTER.VDW>
-37.1021

>  <SCORE.INTER.norm>
-0.77884

>  <SCORE.INTRA>
-0.400498

>  <SCORE.INTRA.DIHEDRAL>
0.0282166

>  <SCORE.INTRA.DIHEDRAL.0>
4.74153

>  <SCORE.INTRA.POLAR>
0

>  <SCORE.INTRA.POLAR.0>
0

>  <SCORE.INTRA.REPUL>
0

>  <SCORE.INTRA.REPUL.0>
0

>  <SCORE.INTRA.SOLV>
2.56562

>  <SCORE.INTRA.SOLV.lig_0>
-60.4375

>  <SCORE.INTRA.VDW>
-1.69741

>  <SCORE.INTRA.VDW.0>
-1.83689

>  <SCORE.INTRA.norm>
-0.00870647

>  <SCORE.RESTR>
0

>  <SCORE.RESTR.CAVITY>
0

>  <SCORE.RESTR.norm>
0

>  <SCORE.SYSTEM>
0

>  <SCORE.SYSTEM.CONST>
0

>  <SCORE.SYSTEM.DIHEDRAL>
0

>  <SCORE.SYSTEM.SOLV>
0

>  <SCORE.SYSTEM.norm>
0

>  <SCORE.heavy>
46

>  <SCORE.norm>
-0.787547

>  <RMSD>
3.824

$$$$
lig.pdb
 OpenBabel11021811523D
libRbt.so/2013.1/901 2013/11/27
 46 52  0  0  0  0  0  0  0  0999 V2000
  160.5325   46.9955  148.1363 P   0  0  2  0  0  0  0  0  0  0  0  0
  160.5827   47.6085  149.5189 O   0  0  0  0  0  0  0  0  0  0  0  0
  160.4447   47.9511  146.9743 O   0  0  0  0  0  0  0  0  0  0  0  0
  159.3300   45.9357  148.0102 O   0  0  0  0  0  0  0  0  0  0  0  0
  158.5910   45.5097  149.1475 C   0  0  0  0  0  0  0  0  0  0  0  0
  157.8091   44.2491  148.8171 C   0  0  1  0  0  0  0  0  0  0  0  0
  156.4505   44.6137  148.6193 O   0  0  0  0  0  0  0  0  0  0  0  0
  158.2419   43.5168  147.5533 C   0  0  1  0  0  0  0  0  0  0  0  0
  158.9948   42.3646  147.9026 O   0  0  0  0  0  0  0  0  0  0  0  0
  156.9347   43.0576  146.9471 C   0  0  1  0  0  0  0  0  0  0  0  0
  156.6009   41.7627  147.4508 O   0  0  0  0  0  0  0  0  0  0  0  0
  155.8931   44.0073  147.4633 C   0  0  2  0  0  0  0  0  0  0  0  0
  155.6473   45.0589  146.4482 N   0  0  0  0  0  0  0  0  0  0  0  0
  156.3118   46.2235  146.3499 C   0  0  0  0  0  0  0  0  0  0  0  0
  155.8291   46.9631  145.3227 N   0  0  0  0  0  0  0  0  0  0  0  0
  154.8334   46.2700  144.7421 C   0  0  0  0  0  0  0  0  0  0  0  0
  153.9049   46.4761  143.6057 C   0  0  0  0  0  0  0  0  0  0  0  0
  153.9539   47.5336  142.9326 O   0  0  0  0  0  0  0  0  0  0  0  0
  153.0210   45.5011  143.3322 N   0  0  0  0  0  0  0  0  0  0  0  0
  152.9715   44.3686  144.0588 C   0  0  0  0  0  0  0  0  0  0  0  0
  152.0648   43.4197  143.7350 N   0  0  0  0  0  0  0  0  0  0  0  0
  153.7881   44.1170  145.1069 N   0  0  0  0  0  0  0  0  0  0  0  0
  154.7219   45.0138  145.4900 C   0  0  0  0  0  0  0  0  0  0  0  0
  159.8464   41.4958  146.8274 P   0  0  2  0  0  0  0  0  0  0  0  0
  158.9723   41.1872  145.6362 O   0  0  0  0  0  0  0  0  0  0  0  0
  160.5092   40.3830  147.6175 O   0  0  0  0  0  0  0  0  0  0  0  0
  160.9702   42.5502  146.3430 O   0  0  0  0  0  0  0  0  0  0  0  0
  162.1237   42.7875  147.1489 C   0  0  0  0  0  0  0  0  0  0  0  0
  162.8350   44.1016  146.8114 C   0  0  1  0  0  0  0  0  0  0  0  0
  163.5247   43.9598  145.5677 O   0  0  0  0  0  0  0  0  0  0  0  0
  161.9194   45.3159  146.6731 C   0  0  1  0  0  0  0  0  0  0  0  0
  161.8224   46.0613  147.8860 O   0  0  0  0  0  0  0  0  0  0  0  0
  162.6058   46.1148  145.5809 C   0  0  1  0  0  0  0  0  0  0  0  0
  163.6060   46.9757  146.1324 O   0  0  0  0  0  0  0  0  0  0  0  0
  163.3133   45.0907  144.7183 C   0  0  2  0  0  0  0  0  0  0  0  0
  162.4265   44.6877  143.5987 N   0  0  0  0  0  0  0  0  0  0  0  0
  161.9317   45.5102  142.6526 C   0  0  0  0  0  0  0  0  0  0  0  0
  161.1594   44.8412  141.7520 N   0  0  0  0  0  0  0  0  0  0  0  0
  161.1563   43.5491  142.1164 C   0  0  0  0  0  0  0  0  0  0  0  0
  160.5334   42.2970  141.6165 C   0  0  0  0  0  0  0  0  0  0  0  0
  159.8163   42.2684  140.5933 O   0  0  0  0  0  0  0  0  0  0  0  0
  160.7853   41.1730  142.2895 N   0  0  0  0  0  0  0  0  0  0  0  0
  161.5534   41.1501  143.3897 C   0  0  0  0  0  0  0  0  0  0  0  0
  161.7287   39.9665  143.9961 N   0  0  0  0  0  0  0  0  0  0  0  0
  162.1477   42.2487  143.9115 N   0  0  0  0  0  0  0  0  0  0  0  0
  161.9897   43.4572  143.3319 C   0  0  0  0  0  0  0  0  0  0  0  0
  1  3  2  6  0  0  0
  1 32  1  0  0  0  0
  1  2  1  0  0  0  0
  1  4  1  0  0  0  0
  4  5  1  0  0  0  0
  6  5  1  6  0  0  0
  7  6  1  0  0  0  0
  8  6  1  0  0  0  0
  8 10  1  0  0  0  0
  8  9  1  1  0  0  0
 10 11  1  1  0  0  0
 12 13  1  6  0  0  0
 12  7  1  0  0  0  0
 12 10  1  0  0  0  0
 14 13  1  0  0  0  0
 15 16  1  0  0  0  0
 15 14  2  0  0  0  0
 16 23  2  0  0  0  0
 17 16  1  0  0  0  0
 17 19  1  0  0  0  0
 18 17  2  0  0  0  0
 19 20  2  0  0  0  0
 20 22  1  0  0  0  0
 20 21  1  0  0  0  0
 23 13  1  0  0  0  0
 23 22  1  0  0  0  0
 24 25  2  6  0  0  0
 24  9  1  0  0  0  0
 24 26  1  0  0  0  0
 27 28  1  0  0  0  0
 27 24  1  0  0  0  0
 29 30  1  6  0  0  0
 29 28  1  0  0  0  0
 31 32  1  1  0  0  0
 31 29  1  0  0  0  0
 33 34  1  1  0  0  0
 33 35  1  0  0  0  0
 33 31  1  0  0  0  0
 35 36  1  6  0  0  0
 35 30  1  0  0  0  0
 36 37  1  0  0  0  0
 38 37  2  0  0  0  0
 39 38  1  0  0  0  0
 40 41  2  0  0  0  0
 40 39  1  0  0  0  0
 42 40  1  0  0  0  0
 43 42  2  0  0  0  0
 43 45  1  0  0  0  0
 44 43  1  0  0  0  0
 45 46  1  0  0  0  0
 46 39  2  0  0  0  0
 46 36  1  0  0  0  0
M  END
>  <CHROM.1>
26.19432896,175.01378361,159.12150323,44.25589374,145.69164460,-0.08690996
-0.14398664,0.94747928

>  <Name>
lig.pdb

>  <RI>
0

>  <Rbt.Current_Directory>
/home/itssahil/PROJECTS/Mol_Feturizer/New_Systems/rnas/4yb0

>  <Rbt.Executable>
rbdock ($Id: //depot/dev/client3/rdock/2013.1/src/exe/rbdock.cxx#4 $)

>  <Rbt.Library>
libRbt.so (2013.1, Build901 2013/11/27)

>  <Rbt.Parameter_File>
/export/apps/rDock/src/rDock_2013.1_src/data/scripts/dock_solv.prm

>  <Rbt.Receptor>
prm/pocket_docking_5.prm

>  <SCORE>
-36.2039

>  <SCORE.INTER>
-35.7751

>  <SCORE.INTER.CONST>
1

>  <SCORE.INTER.POLAR>
0

>  <SCORE.INTER.ROT>
2

>  <SCORE.INTER.SOLV>
24.8521

>  <SCORE.INTER.VDW>
-37.0674

>  <SCORE.INTER.norm>
-0.777719

>  <SCORE.INTRA>
-0.428824

>  <SCORE.INTRA.DIHEDRAL>
0.0304157

>  <SCORE.INTRA.DIHEDRAL.0>
4.74153

>  <SCORE.INTRA.POLAR>
0

>  <SCORE.INTRA.POLAR.0>
0

>  <SCORE.INTRA.REPUL>
0

>  <SCORE.INTRA.REPUL.0>
0

>  <SCORE.INTRA.SOLV>
2.45671

>  <SCORE.INTRA.SOLV.lig_0>
-60.4375

>  <SCORE.INTRA.VDW>
-1.67238

>  <SCORE.INTRA.VDW.0>
-1.83689

>  <SCORE.INTRA.norm>
-0.00932226

>  <SCORE.RESTR>
0

>  <SCORE.RESTR.CAVITY>
0

>  <SCORE.RESTR.norm>
0

>  <SCORE.SYSTEM>
0

>  <SCORE.SYSTEM.CONST>
0

>  <SCORE.SYSTEM.DIHEDRAL>
0

>  <SCORE.SYSTEM.SOLV>
0

>  <SCORE.SYSTEM.norm>
0

>  <SCORE.heavy>
46

>  <SCORE.norm>
-0.787041

>  <RMSD>
3.828

$$$$
lig.pdb
 OpenBabel11021811523D
libRbt.so/2013.1/901 2013/11/27
 46 52  0  0  0  0  0  0  0  0999 V2000
  162.7006   43.7198  147.2556 P   0  0  2  0  0  0  0  0  0  0  0  0
  164.1797   43.4158  147.3531 O   0  0  0  0  0  0  0  0  0  0  0  0
  161.7555   42.6462  147.7304 O   0  0  0  0  0  0  0  0  0  0  0  0
  162.2859   44.1308  145.7575 O   0  0  0  0  0  0  0  0  0  0  0  0
  163.2638   44.3764  144.7554 C   0  0  0  0  0  0  0  0  0  0  0  0
  162.6346   45.1129  143.5843 C   0  0  1  0  0  0  0  0  0  0  0  0
  162.4317   44.1776  142.5347 O   0  0  0  0  0  0  0  0  0  0  0  0
  161.2771   45.7480  143.8573 C   0  0  1  0  0  0  0  0  0  0  0  0
  161.4293   47.1506  144.0186 O   0  0  0  0  0  0  0  0  0  0  0  0
  160.5098   45.5030  142.5774 C   0  0  1  0  0  0  0  0  0  0  0  0
  160.7162   46.5940  141.6779 O   0  0  0  0  0  0  0  0  0  0  0  0
  161.1438   44.2957  141.9499 C   0  0  2  0  0  0  0  0  0  0  0  0
  160.3521   43.0926  142.3001 N   0  0  0  0  0  0  0  0  0  0  0  0
  160.3945   42.4418  143.4757 C   0  0  0  0  0  0  0  0  0  0  0  0
  159.5592   41.3754  143.4613 N   0  0  0  0  0  0  0  0  0  0  0  0
  158.9627   41.3298  142.2567 C   0  0  0  0  0  0  0  0  0  0  0  0
  157.9698   40.4588  141.5848 C   0  0  0  0  0  0  0  0  0  0  0  0
  157.4871   39.4690  142.1859 O   0  0  0  0  0  0  0  0  0  0  0  0
  157.6156   40.7660  140.3251 N   0  0  0  0  0  0  0  0  0  0  0  0
  158.1378   41.8285  139.6838 C   0  0  0  0  0  0  0  0  0  0  0  0
  157.7409   42.0924  138.4188 N   0  0  0  0  0  0  0  0  0  0  0  0
  159.0468   42.6627  140.2376 N   0  0  0  0  0  0  0  0  0  0  0  0
  159.4903   42.4679  141.4978 C   0  0  0  0  0  0  0  0  0  0  0  0
  160.2540   48.1157  144.5872 P   0  0  2  0  0  0  0  0  0  0  0  0
  158.9729   47.8281  143.8427 O   0  0  0  0  0  0  0  0  0  0  0  0
  160.8393   49.5151  144.6204 O   0  0  0  0  0  0  0  0  0  0  0  0
  160.0663   47.5787  146.0990 O   0  0  0  0  0  0  0  0  0  0  0  0
  160.9737   47.9876  147.1217 C   0  0  0  0  0  0  0  0  0  0  0  0
  160.9571   47.0669  148.3459 C   0  0  1  0  0  0  0  0  0  0  0  0
  159.7559   47.2889  149.0879 O   0  0  0  0  0  0  0  0  0  0  0  0
  161.0136   45.5733  148.0330 C   0  0  1  0  0  0  0  0  0  0  0  0
  162.3450   45.0615  148.0756 O   0  0  0  0  0  0  0  0  0  0  0  0
  160.1528   44.9804  149.1328 C   0  0  1  0  0  0  0  0  0  0  0  0
  160.9298   44.7281  150.3068 O   0  0  0  0  0  0  0  0  0  0  0  0
  159.1444   46.0563  149.4779 C   0  0  2  0  0  0  0  0  0  0  0  0
  157.9133   45.8586  148.6733 N   0  0  0  0  0  0  0  0  0  0  0  0
  157.0195   46.8162  148.3556 C   0  0  0  0  0  0  0  0  0  0  0  0
  156.0007   46.3272  147.5953 N   0  0  0  0  0  0  0  0  0  0  0  0
  156.2399   45.0197  147.4070 C   0  0  0  0  0  0  0  0  0  0  0  0
  155.5620   43.8964  146.7111 C   0  0  0  0  0  0  0  0  0  0  0  0
  154.4970   44.0484  146.0751 O   0  0  0  0  0  0  0  0  0  0  0  0
  156.1461   42.6981  146.7631 N   0  0  0  0  0  0  0  0  0  0  0  0
  157.2925   42.4848  147.4273 C   0  0  0  0  0  0  0  0  0  0  0  0
  157.7841   41.2367  147.4257 N   0  0  0  0  0  0  0  0  0  0  0  0
  157.9645   43.4535  148.0922 N   0  0  0  0  0  0  0  0  0  0  0  0
  157.4976   44.7195  148.1203 C   0  0  0  0  0  0  0  0  0  0  0  0
  1  3  2  1  0  0  0
  1 32  1  0  0  0  0
  1  2  1  0  0  0  0
  1  4  1  0  0  0  0
  4  5  1  0  0  0  0
  6  5  1  1  0  0  0
  7  6  1  0  0  0  0
  8  6  1  0  0  0  0
  8 10  1  0  0  0  0
  8  9  1  6  0  0  0
 10 11  1  6  0  0  0
 12 13  1  1  0  0  0
 12  7  1  0  0  0  0
 12 10  1  0  0  0  0
 14 13  1  0  0  0  0
 15 16  1  0  0  0  0
 15 14  2  0  0  0  0
 16 23  2  0  0  0  0
 17 16  1  0  0  0  0
 17 19  1  0  0  0  0
 18 17  2  0  0  0  0
 19 20  2  0  0  0  0
 20 22  1  0  0  0  0
 20 21  1  0  0  0  0
 23 13  1  0  0  0  0
 23 22  1  0  0  0  0
 24 25  2  6  0  0  0
 24  9  1  0  0  0  0
 24 26  1  0  0  0  0
 27 28  1  0  0  0  0
 27 24  1  0  0  0  0
 29 30  1  6  0  0  0
 29 28  1  0  0  0  0
 31 32  1  1  0  0  0
 31 29  1  0  0  0  0
 33 34  1  1  0  0  0
 33 35  1  0  0  0  0
 33 31  1  0  0  0  0
 35 36  1  6  0  0  0
 35 30  1  0  0  0  0
 36 37  1  0  0  0  0
 38 37  2  0  0  0  0
 39 38  1  0  0  0  0
 40 41  2  0  0  0  0
 40 39  1  0  0  0  0
 42 40  1  0  0  0  0
 43 42  2  0  0  0  0
 43 45  1  0  0  0  0
 44 43  1  0  0  0  0
 45 46  1  0  0  0  0
 46 39  2  0  0  0  0
 46 36  1  0  0  0  0
M  END
>  <CHROM.1>
36.92764523,-40.96647767,159.74207769,44.55161082,145.27919120,-1.38767479
-0.60450824,-1.98591956

>  <Name>
lig.pdb

>  <RI>
0

>  <Rbt.Current_Directory>
/home/itssahil/PROJECTS/Mol_Feturizer/New_Systems/rnas/4yb0

>  <Rbt.Executable>
rbdock ($Id: //depot/dev/client3/rdock/2013.1/src/exe/rbdock.cxx#4 $)

>  <Rbt.Library>
libRbt.so (2013.1, Build901 2013/11/27)

>  <Rbt.Parameter_File>
/export/apps/rDock/src/rDock_2013.1_src/data/scripts/dock_solv.prm

>  <Rbt.Receptor>
prm/pocket_docking_7.prm

>  <SCORE>
-27.3751

>  <SCORE.INTER>
-27.3159

>  <SCORE.INTER.CONST>
1

>  <SCORE.INTER.POLAR>
0

>  <SCORE.INTER.ROT>
2

>  <SCORE.INTER.SOLV>
20.9127

>  <SCORE.INTER.VDW>
-30.1148

>  <SCORE.INTER.norm>
-0.593824

>  <SCORE.INTRA>
-0.0591623

>  <SCORE.INTRA.DIHEDRAL>
-0.0336341

>  <SCORE.INTRA.DIHEDRAL.0>
4.74153

>  <SCORE.INTRA.POLAR>
0

>  <SCORE.INTRA.POLAR.0>
0

>  <SCORE.INTRA.REPUL>
0

>  <SCORE.INTRA.REPUL.0>
0

>  <SCORE.INTRA.SOLV>
0.100959

>  <SCORE.INTRA.SOLV.lig_0>
-60.4375

>  <SCORE.INTRA.VDW>
-0.0928245

>  <SCORE.INTRA.VDW.0>
-1.83689

>  <SCORE.INTRA.norm>
-0.00128614

>  <SCORE.RESTR>
0

>  <SCORE.RESTR.CAVITY>
0

>  <SCORE.RESTR.norm>
0

>  <SCORE.SYSTEM>
0

>  <SCORE.SYSTEM.CONST>
0

>  <SCORE.SYSTEM.DIHEDRAL>
0

>  <SCORE.SYSTEM.SOLV>
0

>  <SCORE.SYSTEM.norm>
0

>  <SCORE.heavy>
46

>  <SCORE.norm>
-0.59511

>  <RMSD>
3.858

$$$$
lig.pdb
 OpenBabel11021811523D
libRbt.so/2013.1/901 2013/11/27
 46 52  0  0  0  0  0  0  0  0999 V2000
  159.9841   41.5222  147.0022 P   0  0  2  0  0  0  0  0  0  0  0  0
  160.8455   40.4551  147.6418 O   0  0  0  0  0  0  0  0  0  0  0  0
  159.1341   41.0960  145.8330 O   0  0  0  0  0  0  0  0  0  0  0  0
  160.8634   42.7905  146.5513 O   0  0  0  0  0  0  0  0  0  0  0  0
  162.2257   42.9258  146.9346 C   0  0  0  0  0  0  0  0  0  0  0  0
  162.6860   44.3584  146.7211 C   0  0  1  0  0  0  0  0  0  0  0  0
  163.4727   44.3957  145.5389 O   0  0  0  0  0  0  0  0  0  0  0  0
  161.5775   45.3853  146.5275 C   0  0  1  0  0  0  0  0  0  0  0  0
  161.4108   46.1390  147.7195 O   0  0  0  0  0  0  0  0  0  0  0  0
  162.1319   46.3059  145.4635 C   0  0  1  0  0  0  0  0  0  0  0  0
  162.8590   47.3699  146.0811 O   0  0  0  0  0  0  0  0  0  0  0  0
  163.1282   45.4853  144.6971 C   0  0  2  0  0  0  0  0  0  0  0  0
  162.4823   44.9534  143.4737 N   0  0  0  0  0  0  0  0  0  0  0  0
  162.2379   45.6506  142.3505 C   0  0  0  0  0  0  0  0  0  0  0  0
  161.6225   44.8710  141.4292 N   0  0  0  0  0  0  0  0  0  0  0  0
  161.4626   43.6458  141.9603 C   0  0  0  0  0  0  0  0  0  0  0  0
  160.8880   42.3531  141.5190 C   0  0  0  0  0  0  0  0  0  0  0  0
  160.3825   42.2428  140.3761 O   0  0  0  0  0  0  0  0  0  0  0  0
  160.9276   41.3218  142.3801 N   0  0  0  0  0  0  0  0  0  0  0  0
  161.4699   41.4458  143.6062 C   0  0  0  0  0  0  0  0  0  0  0  0
  161.4864   40.3731  144.4287 N   0  0  0  0  0  0  0  0  0  0  0  0
  162.0103   42.5948  144.0714 N   0  0  0  0  0  0  0  0  0  0  0  0
  162.0349   43.7088  143.3088 C   0  0  0  0  0  0  0  0  0  0  0  0
  160.1513   47.1300  147.9793 P   0  0  2  0  0  0  0  0  0  0  0  0
  159.9748   48.0316  146.7816 O   0  0  0  0  0  0  0  0  0  0  0  0
  160.3512   47.7080  149.3677 O   0  0  0  0  0  0  0  0  0  0  0  0
  158.9031   46.1049  148.0015 O   0  0  0  0  0  0  0  0  0  0  0  0
  158.6206   45.3466  149.1769 C   0  0  0  0  0  0  0  0  0  0  0  0
  157.7394   44.1228  148.9075 C   0  0  1  0  0  0  0  0  0  0  0  0
  156.3991   44.5513  148.6573 O   0  0  0  0  0  0  0  0  0  0  0  0
  158.1618   43.2719  147.7119 C   0  0  1  0  0  0  0  0  0  0  0  0
  158.9953   42.1783  148.0935 O   0  0  0  0  0  0  0  0  0  0  0  0
  156.8282   42.7937  147.1689 C   0  0  1  0  0  0  0  0  0  0  0  0
  156.4101   41.5957  147.8291 O   0  0  0  0  0  0  0  0  0  0  0  0
  155.8357   43.8800  147.5273 C   0  0  2  0  0  0  0  0  0  0  0  0
  155.7283   44.8439  146.4041 N   0  0  0  0  0  0  0  0  0  0  0  0
  156.7085   45.6634  145.9750 C   0  0  0  0  0  0  0  0  0  0  0  0
  156.3090   46.4215  144.9163 N   0  0  0  0  0  0  0  0  0  0  0  0
  155.0388   46.0826  144.6441 C   0  0  0  0  0  0  0  0  0  0  0  0
  154.0057   46.5008  143.6626 C   0  0  0  0  0  0  0  0  0  0  0  0
  154.2255   47.3650  142.7868 O   0  0  0  0  0  0  0  0  0  0  0  0
  152.8171   45.8983  143.7257 N   0  0  0  0  0  0  0  0  0  0  0  0
  152.5338   44.9605  144.6428 C   0  0  0  0  0  0  0  0  0  0  0  0
  151.3016   44.4306  144.6240 N   0  0  0  0  0  0  0  0  0  0  0  0
  153.4175   44.5328  145.5747 N   0  0  0  0  0  0  0  0  0  0  0  0
  154.6642   45.0467  145.6276 C   0  0  0  0  0  0  0  0  0  0  0  0
  1  3  2  6  0  0  0
  1 32  1  0  0  0  0
  1  2  1  0  0  0  0
  1  4  1  0  0  0  0
  4  5  1  0  0  0  0
  6  5  1  6  0  0  0
  7  6  1  0  0  0  0
  8  6  1  0  0  0  0
  8 10  1  0  0  0  0
  8  9  1  1  0  0  0
 10 11  1  1  0  0  0
 12 13  1  6  0  0  0
 12  7  1  0  0  0  0
 12 10  1  0  0  0  0
 14 13  1  0  0  0  0
 15 16  1  0  0  0  0
 15 14  2  0  0  0  0
 16 23  2  0  0  0  0
 17 16  1  0  0  0  0
 17 19  1  0  0  0  0
 18 17  2  0  0  0  0
 19 20  2  0  0  0  0
 20 22  1  0  0  0  0
 20 21  1  0  0  0  0
 23 13  1  0  0  0  0
 23 22  1  0  0  0  0
 24 25  2  6  0  0  0
 24  9  1  0  0  0  0
 24 26  1  0  0  0  0
 27 28  1  0  0  0  0
 27 24  1  0  0  0  0
 29 30  1  6  0  0  0
 29 28  1  0  0  0  0
 31 32  1  1  0  0  0
 31 29  1  0  0  0  0
 33 34  1  1  0  0  0
 33 35  1  0  0  0  0
 33 31  1  0  0  0  0
 35 36  1  6  0  0  0
 35 30  1  0  0  0  0
 36 37  1  0  0  0  0
 38 37  2  0  0  0  0
 39 38  1  0  0  0  0
 40 41  2  0  0  0  0
 40 39  1  0  0  0  0
 42 40  1  0  0  0  0
 43 42  2  0  0  0  0
 43 45  1  0  0  0  0
 44 43  1  0  0  0  0
 45 46  1  0  0  0  0
 46 39  2  0  0  0  0
 46 36  1  0  0  0  0
M  END
>  <CHROM.1>
-167.38358226,48.65407057,159.06424588,44.34509682,145.72305530,-0.16767804
-0.12840761,1.13105139

>  <Name>
lig.pdb

>  <RI>
0

>  <Rbt.Current_Directory>
/home/itssahil/PROJECTS/Mol_Feturizer/New_Systems/rnas/4yb0

>  <Rbt.Executable>
rbdock ($Id: //depot/dev/client3/rdock/2013.1/src/exe/rbdock.cxx#4 $)

>  <Rbt.Library>
libRbt.so (2013.1, Build901 2013/11/27)

>  <Rbt.Parameter_File>
/export/apps/rDock/src/rDock_2013.1_src/data/scripts/dock_solv.prm

>  <Rbt.Receptor>
prm/pocket_docking_5.prm

>  <SCORE>
-31.0592

>  <SCORE.INTER>
-31.091

>  <SCORE.INTER.CONST>
1

>  <SCORE.INTER.POLAR>
0

>  <SCORE.INTER.ROT>
2

>  <SCORE.INTER.SOLV>
23.5928

>  <SCORE.INTER.VDW>
-33.5249

>  <SCORE.INTER.norm>
-0.67589

>  <SCORE.INTRA>
0.031738

>  <SCORE.INTRA.DIHEDRAL>
0.122183

>  <SCORE.INTRA.DIHEDRAL.0>
4.74153

>  <SCORE.INTRA.POLAR>
0

>  <SCORE.INTRA.POLAR.0>
0

>  <SCORE.INTRA.REPUL>
0

>  <SCORE.INTRA.REPUL.0>
0

>  <SCORE.INTRA.SOLV>
3.53451

>  <SCORE.INTRA.SOLV.lig_0>
-60.4375

>  <SCORE.INTRA.VDW>
-1.79661

>  <SCORE.INTRA.VDW.0>
-1.83689

>  <SCORE.INTRA.norm>
0.000689957

>  <SCORE.RESTR>
0

>  <SCORE.RESTR.CAVITY>
0

>  <SCORE.RESTR.norm>
0

>  <SCORE.SYSTEM>
0

>  <SCORE.SYSTEM.CONST>
0

>  <SCORE.SYSTEM.DIHEDRAL>
0

>  <SCORE.SYSTEM.SOLV>
0

>  <SCORE.SYSTEM.norm>
0

>  <SCORE.heavy>
46

>  <SCORE.norm>
-0.6752

>  <RMSD>
3.900

$$$$
lig.pdb
 OpenBabel11021811523D
libRbt.so/2013.1/901 2013/11/27
 46 52  0  0  0  0  0  0  0  0999 V2000
  159.9990   41.5369  146.9893 P   0  0  2  0  0  0  0  0  0  0  0  0
  160.8647   40.4690  147.6217 O   0  0  0  0  0  0  0  0  0  0  0  0
  159.1535   41.1161  145.8150 O   0  0  0  0  0  0  0  0  0  0  0  0
  160.8727   42.8133  146.5505 O   0  0  0  0  0  0  0  0  0  0  0  0
  162.2335   42.9524  146.9375 C   0  0  0  0  0  0  0  0  0  0  0  0
  162.6869   44.3890  146.7367 C   0  0  1  0  0  0  0  0  0  0  0  0
  163.4757   44.4401  145.5564 O   0  0  0  0  0  0  0  0  0  0  0  0
  161.5736   45.4119  146.5495 C   0  0  1  0  0  0  0  0  0  0  0  0
  161.4007   46.1548  147.7473 O   0  0  0  0  0  0  0  0  0  0  0  0
  162.1253   46.3440  145.4941 C   0  0  1  0  0  0  0  0  0  0  0  0
  162.8458   47.4065  146.1218 O   0  0  0  0  0  0  0  0  0  0  0  0
  163.1272   45.5348  144.7229 C   0  0  2  0  0  0  0  0  0  0  0  0
  162.4864   45.0097  143.4939 N   0  0  0  0  0  0  0  0  0  0  0  0
  162.2504   45.7120  142.3721 C   0  0  0  0  0  0  0  0  0  0  0  0
  161.6376   44.9380  141.4445 N   0  0  0  0  0  0  0  0  0  0  0  0
  161.4709   43.7112  141.9699 C   0  0  0  0  0  0  0  0  0  0  0  0
  160.8946   42.4221  141.5205 C   0  0  0  0  0  0  0  0  0  0  0  0
  160.3950   42.3178  140.3744 O   0  0  0  0  0  0  0  0  0  0  0  0
  160.9261   41.3873  142.3777 N   0  0  0  0  0  0  0  0  0  0  0  0
  161.4621   41.5048  143.6073 C   0  0  0  0  0  0  0  0  0  0  0  0
  161.4706   40.4290  144.4257 N   0  0  0  0  0  0  0  0  0  0  0  0
  162.0036   42.6504  144.0799 N   0  0  0  0  0  0  0  0  0  0  0  0
  162.0359   43.7672  143.3217 C   0  0  0  0  0  0  0  0  0  0  0  0
  160.1357   47.1373  148.0127 P   0  0  2  0  0  0  0  0  0  0  0  0
  159.9569   48.0478  146.8222 O   0  0  0  0  0  0  0  0  0  0  0  0
  160.3300   47.7048  149.4063 O   0  0  0  0  0  0  0  0  0  0  0  0
  158.8927   46.1056  148.0241 O   0  0  0  0  0  0  0  0  0  0  0  0
  158.6118   45.3363  149.1926 C   0  0  0  0  0  0  0  0  0  0  0  0
  157.7375   44.1102  148.9115 C   0  0  1  0  0  0  0  0  0  0  0  0
  156.3955   44.5340  148.6623 O   0  0  0  0  0  0  0  0  0  0  0  0
  158.1665   43.2714  147.7098 C   0  0  1  0  0  0  0  0  0  0  0  0
  159.0048   42.1789  148.0840 O   0  0  0  0  0  0  0  0  0  0  0  0
  156.8364   42.7909  147.1603 C   0  0  1  0  0  0  0  0  0  0  0  0
  156.4231   41.5854  147.8098 O   0  0  0  0  0  0  0  0  0  0  0  0
  155.8377   43.8691  147.5256 C   0  0  2  0  0  0  0  0  0  0  0  0
  155.7275   44.8416  146.4102 N   0  0  0  0  0  0  0  0  0  0  0  0
  156.7048   45.6686  145.9888 C   0  0  0  0  0  0  0  0  0  0  0  0
  156.3032   46.4336  144.9358 N   0  0  0  0  0  0  0  0  0  0  0  0
  155.0347   46.0918  144.6596 C   0  0  0  0  0  0  0  0  0  0  0  0
  154.0009   46.5139  143.6805 C   0  0  0  0  0  0  0  0  0  0  0  0
  154.2181   47.3860  142.8120 O   0  0  0  0  0  0  0  0  0  0  0  0
  152.8147   45.9061  143.7375 N   0  0  0  0  0  0  0  0  0  0  0  0
  152.5342   44.9598  144.6467 C   0  0  0  0  0  0  0  0  0  0  0  0
  151.3042   44.4251  144.6224 N   0  0  0  0  0  0  0  0  0  0  0  0
  153.4187   44.5281  145.5760 N   0  0  0  0  0  0  0  0  0  0  0  0
  154.6634   45.0465  145.6343 C   0  0  0  0  0  0  0  0  0  0  0  0
  1  3  2  6  0  0  0
  1 32  1  0  0  0  0
  1  2  1  0  0  0  0
  1  4  1  0  0  0  0
  4  5  1  0  0  0  0
  6  5  1  6  0  0  0
  7  6  1  0  0  0  0
  8  6  1  0  0  0  0
  8 10  1  0  0  0  0
  8  9  1  1  0  0  0
 10 11  1  1  0  0  0
 12 13  1  6  0  0  0
 12  7  1  0  0  0  0
 12 10  1  0  0  0  0
 14 13  1  0  0  0  0
 15 16  1  0  0  0  0
 15 14  2  0  0  0  0
 16 23  2  0  0  0  0
 17 16  1  0  0  0  0
 17 19  1  0  0  0  0
 18 17  2  0  0  0  0
 19 20  2  0  0  0  0
 20 22  1  0  0  0  0
 20 21  1  0  0  0  0
 23 13  1  0  0  0  0
 23 22  1  0  0  0  0
 24 25  2  6  0  0  0
 24  9  1  0  0  0  0
 24 26  1  0  0  0  0
 27 28  1  0  0  0  0
 27 24  1  0  0  0  0
 29 30  1  6  0  0  0
 29 28  1  0  0  0  0
 31 32  1  1  0  0  0
 31 29  1  0  0  0  0
 33 34  1  1  0  0  0
 33 35  1  0  0  0  0
 33 31  1  0  0  0  0
 35 36  1  6  0  0  0
 35 30  1  0  0  0  0
 36 37  1  0  0  0  0
 38 37  2  0  0  0  0
 39 38  1  0  0  0  0
 40 41  2  0  0  0  0
 40 39  1  0  0  0  0
 42 40  1  0  0  0  0
 43 42  2  0  0  0  0
 43 45  1  0  0  0  0
 44 43  1  0  0  0  0
 45 46  1  0  0  0  0
 46 39  2  0  0  0  0
 46 36  1  0  0  0  0
M  END
>  <CHROM.1>
-166.80809737,48.73602117,159.06422808,44.36668121,145.73296998,-0.16159354
-0.12423368,1.14105743

>  <Name>
lig.pdb

>  <RI>
0

>  <Rbt.Current_Directory>
/home/itssahil/PROJECTS/Mol_Feturizer/New_Systems/rnas/4yb0

>  <Rbt.Executable>
rbdock ($Id: //depot/dev/client3/rdock/2013.1/src/exe/rbdock.cxx#4 $)

>  <Rbt.Library>
libRbt.so (2013.1, Build901 2013/11/27)

>  <Rbt.Parameter_File>
/export/apps/rDock/src/rDock_2013.1_src/data/scripts/dock_solv.prm

>  <Rbt.Receptor>
prm/pocket_docking_5.prm

>  <SCORE>
-31.0647

>  <SCORE.INTER>
-31.1764

>  <SCORE.INTER.CONST>
1

>  <SCORE.INTER.POLAR>
0

>  <SCORE.INTER.ROT>
2

>  <SCORE.INTER.SOLV>
23.3654

>  <SCORE.INTER.VDW>
-33.5061

>  <SCORE.INTER.norm>
-0.677748

>  <SCORE.INTRA>
0.111705

>  <SCORE.INTRA.DIHEDRAL>
0.123033

>  <SCORE.INTRA.DIHEDRAL.0>
4.74153

>  <SCORE.INTRA.POLAR>
0

>  <SCORE.INTRA.POLAR.0>
0

>  <SCORE.INTRA.REPUL>
0

>  <SCORE.INTRA.REPUL.0>
0

>  <SCORE.INTRA.SOLV>
3.608

>  <SCORE.INTRA.SOLV.lig_0>
-60.4375

>  <SCORE.INTRA.VDW>
-1.75381

>  <SCORE.INTRA.VDW.0>
-1.83689

>  <SCORE.INTRA.norm>
0.00242837

>  <SCORE.RESTR>
0

>  <SCORE.RESTR.CAVITY>
0

>  <SCORE.RESTR.norm>
0

>  <SCORE.SYSTEM>
0

>  <SCORE.SYSTEM.CONST>
0

>  <SCORE.SYSTEM.DIHEDRAL>
0

>  <SCORE.SYSTEM.SOLV>
0

>  <SCORE.SYSTEM.norm>
0

>  <SCORE.heavy>
46

>  <SCORE.norm>
-0.67532

>  <RMSD>
3.923

$$$$
lig.pdb
 OpenBabel11021811523D
libRbt.so/2013.1/901 2013/11/27
 46 52  0  0  0  0  0  0  0  0999 V2000
  159.9563   47.0335  148.3782 P   0  0  2  0  0  0  0  0  0  0  0  0
  159.6769   47.9179  149.5738 O   0  0  0  0  0  0  0  0  0  0  0  0
  160.0999   47.7217  147.0452 O   0  0  0  0  0  0  0  0  0  0  0  0
  158.8467   45.8790  148.2332 O   0  0  0  0  0  0  0  0  0  0  0  0
  157.8862   45.6375  149.2531 C   0  0  0  0  0  0  0  0  0  0  0  0
  157.2383   44.2785  149.0459 C   0  0  1  0  0  0  0  0  0  0  0  0
  155.9473   44.4870  148.4911 O   0  0  0  0  0  0  0  0  0  0  0  0
  157.9655   43.3399  148.0914 C   0  0  1  0  0  0  0  0  0  0  0  0
  158.6576   42.3462  148.8330 O   0  0  0  0  0  0  0  0  0  0  0  0
  156.8421   42.6652  147.3366 C   0  0  1  0  0  0  0  0  0  0  0  0
  156.4455   41.4783  148.0265 O   0  0  0  0  0  0  0  0  0  0  0  0
  155.6818   43.6154  147.4028 C   0  0  2  0  0  0  0  0  0  0  0  0
  155.6356   44.4149  146.1556 N   0  0  0  0  0  0  0  0  0  0  0  0
  156.6691   45.0831  145.6147 C   0  0  0  0  0  0  0  0  0  0  0  0
  156.2846   45.7228  144.4841 N   0  0  0  0  0  0  0  0  0  0  0  0
  154.9792   45.4679  144.2847 C   0  0  0  0  0  0  0  0  0  0  0  0
  153.9576   45.8344  143.2757 C   0  0  0  0  0  0  0  0  0  0  0  0
  154.2602   46.5747  142.3091 O   0  0  0  0  0  0  0  0  0  0  0  0
  152.7138   45.3514  143.4375 N   0  0  0  0  0  0  0  0  0  0  0  0
  152.3937   44.5584  144.4775 C   0  0  0  0  0  0  0  0  0  0  0  0
  151.1276   44.0977  144.5870 N   0  0  0  0  0  0  0  0  0  0  0  0
  153.2760   44.1863  145.4325 N   0  0  0  0  0  0  0  0  0  0  0  0
  154.5598   44.6024  145.3914 C   0  0  0  0  0  0  0  0  0  0  0  0
  159.7550   41.3459  148.1764 P   0  0  2  0  0  0  0  0  0  0  0  0
  159.1794   40.7327  146.9230 O   0  0  0  0  0  0  0  0  0  0  0  0
  160.2596   40.4735  149.3105 O   0  0  0  0  0  0  0  0  0  0  0  0
  160.9245   42.3642  147.7240 O   0  0  0  0  0  0  0  0  0  0  0  0
  161.8608   42.8510  148.6846 C   0  0  0  0  0  0  0  0  0  0  0  0
  162.5873   44.1203  148.2289 C   0  0  1  0  0  0  0  0  0  0  0  0
  163.5416   43.7822  147.2200 O   0  0  0  0  0  0  0  0  0  0  0  0
  161.6877   45.2049  147.6405 C   0  0  1  0  0  0  0  0  0  0  0  0
  161.2985   46.1723  148.6146 O   0  0  0  0  0  0  0  0  0  0  0  0
  162.5749   45.8154  146.5717 C   0  0  1  0  0  0  0  0  0  0  0  0
  163.3988   46.8467  147.1225 O   0  0  0  0  0  0  0  0  0  0  0  0
  163.4893   44.6956  146.1208 C   0  0  2  0  0  0  0  0  0  0  0  0
  162.8883   44.0040  144.9535 N   0  0  0  0  0  0  0  0  0  0  0  0
  162.5730   42.6951  144.8919 C   0  0  0  0  0  0  0  0  0  0  0  0
  162.0243   42.3613  143.6908 N   0  0  0  0  0  0  0  0  0  0  0  0
  161.9745   43.4821  142.9535 C   0  0  0  0  0  0  0  0  0  0  0  0
  161.5247   43.8448  141.5854 C   0  0  0  0  0  0  0  0  0  0  0  0
  161.0224   43.0099  140.8027 O   0  0  0  0  0  0  0  0  0  0  0  0
  161.6510   45.1199  141.2139 N   0  0  0  0  0  0  0  0  0  0  0  0
  162.1780   46.0550  142.0193 C   0  0  0  0  0  0  0  0  0  0  0  0
  162.2704   47.3037  141.5381 N   0  0  0  0  0  0  0  0  0  0  0  0
  162.6179   45.8015  143.2741 N   0  0  0  0  0  0  0  0  0  0  0  0
  162.5460   44.5565  143.7900 C   0  0  0  0  0  0  0  0  0  0  0  0
  1  3  2  6  0  0  0
  1 32  1  0  0  0  0
  1  2  1  0  0  0  0
  1  4  1  0  0  0  0
  4  5  1  0  0  0  0
  6  5  1  6  0  0  0
  7  6  1  0  0  0  0
  8  6  1  0  0  0  0
  8 10  1  0  0  0  0
  8  9  1  1  0  0  0
 10 11  1  1  0  0  0
 12 13  1  6  0  0  0
 12  7  1  0  0  0  0
 12 10  1  0  0  0  0
 14 13  1  0  0  0  0
 15 16  1  0  0  0  0
 15 14  2  0  0  0  0
 16 23  2  0  0  0  0
 17 16  1  0  0  0  0
 17 19  1  0  0  0  0
 18 17  2  0  0  0  0
 19 20  2  0  0  0  0
 20 22  1  0  0  0  0
 20 21  1  0  0  0  0
 23 13  1  0  0  0  0
 23 22  1  0  0  0  0
 24 25  2  6  0  0  0
 24  9  1  0  0  0  0
 24 26  1  0  0  0  0
 27 28  1  0  0  0  0
 27 24  1  0  0  0  0
 29 30  1  6  0  0  0
 29 28  1  0  0  0  0
 31 32  1  1  0  0  0
 31 29  1  0  0  0  0
 33 34  1  1  0  0  0
 33 35  1  0  0  0  0
 33 31  1  0  0  0  0
 35 36  1  6  0  0  0
 35 30  1  0  0  0  0
 36 37  1  0  0  0  0
 38 37  2  0  0  0  0
 39 38  1  0  0  0  0
 40 41  2  0  0  0  0
 40 39  1  0  0  0  0
 42 40  1  0  0  0  0
 43 42  2  0  0  0  0
 43 45  1  0  0  0  0
 44 43  1  0  0  0  0
 45 46  1  0  0  0  0
 46 39  2  0  0  0  0
 46 36  1  0  0  0  0
M  END
>  <CHROM.1>
64.87980507,-6.39608533,159.09652163,44.43055020,146.12672606,0.05604874
0.00246622,1.82922598

>  <Name>
lig.pdb

>  <RI>
0

>  <Rbt.Current_Directory>
/home/itssahil/PROJECTS/Mol_Feturizer/New_Systems/rnas/4yb0

>  <Rbt.Executable>
rbdock ($Id: //depot/dev/client3/rdock/2013.1/src/exe/rbdock.cxx#4 $)

>  <Rbt.Library>
libRbt.so (2013.1, Build901 2013/11/27)

>  <Rbt.Parameter_File>
/export/apps/rDock/src/rDock_2013.1_src/data/scripts/dock_solv.prm

>  <Rbt.Receptor>
prm/pocket_docking_5.prm

>  <SCORE>
-23.6116

>  <SCORE.INTER>
-23.6319

>  <SCORE.INTER.CONST>
1

>  <SCORE.INTER.POLAR>
0

>  <SCORE.INTER.ROT>
2

>  <SCORE.INTER.SOLV>
23.4921

>  <SCORE.INTER.VDW>
-28.5186

>  <SCORE.INTER.norm>
-0.513737

>  <SCORE.INTRA>
0.020273

>  <SCORE.INTRA.DIHEDRAL>
0.0496967

>  <SCORE.INTRA.DIHEDRAL.0>
4.74153

>  <SCORE.INTRA.POLAR>
0

>  <SCORE.INTRA.POLAR.0>
0

>  <SCORE.INTRA.REPUL>
0

>  <SCORE.INTRA.REPUL.0>
0

>  <SCORE.INTRA.SOLV>
-0.0425795

>  <SCORE.INTRA.SOLV.lig_0>
-60.4375

>  <SCORE.INTRA.VDW>
0.0167144

>  <SCORE.INTRA.VDW.0>
-1.83689

>  <SCORE.INTRA.norm>
0.000440718

>  <SCORE.RESTR>
0

>  <SCORE.RESTR.CAVITY>
0

>  <SCORE.RESTR.norm>
0

>  <SCORE.SYSTEM>
0

>  <SCORE.SYSTEM.CONST>
0

>  <SCORE.SYSTEM.DIHEDRAL>
0

>  <SCORE.SYSTEM.SOLV>
0

>  <SCORE.SYSTEM.norm>
0

>  <SCORE.heavy>
46

>  <SCORE.norm>
-0.513296

>  <RMSD>
4.180

$$$$
lig.pdb
 OpenBabel11021811523D
libRbt.so/2013.1/901 2013/11/27
 46 52  0  0  0  0  0  0  0  0999 V2000
  159.5994   49.3308  147.1497 P   0  0  2  0  0  0  0  0  0  0  0  0
  159.3070   50.5828  147.9476 O   0  0  0  0  0  0  0  0  0  0  0  0
  159.4907   49.4419  145.6507 O   0  0  0  0  0  0  0  0  0  0  0  0
  158.6815   48.1023  147.6326 O   0  0  0  0  0  0  0  0  0  0  0  0
  157.8840   48.1856  148.8065 C   0  0  0  0  0  0  0  0  0  0  0  0
  157.4457   46.7955  149.2370 C   0  0  1  0  0  0  0  0  0  0  0  0
  156.0874   46.6257  148.8576 O   0  0  0  0  0  0  0  0  0  0  0  0
  158.2114   45.6383  148.6082 C   0  0  1  0  0  0  0  0  0  0  0  0
  159.1281   45.1031  149.5515 O   0  0  0  0  0  0  0  0  0  0  0  0
  157.1391   44.6024  148.3554 C   0  0  1  0  0  0  0  0  0  0  0  0
  157.0131   43.7536  149.4980 O   0  0  0  0  0  0  0  0  0  0  0  0
  155.8541   45.3696  148.2392 C   0  0  2  0  0  0  0  0  0  0  0  0
  155.5501   45.5958  146.8063 N   0  0  0  0  0  0  0  0  0  0  0  0
  156.3028   46.3064  145.9485 C   0  0  0  0  0  0  0  0  0  0  0  0
  155.7330   46.3294  144.7196 N   0  0  0  0  0  0  0  0  0  0  0  0
  154.5901   45.6228  144.7771 C   0  0  0  0  0  0  0  0  0  0  0  0
  153.5111   45.2512  143.8318 C   0  0  0  0  0  0  0  0  0  0  0  0
  153.5537   45.6385  142.6393 O   0  0  0  0  0  0  0  0  0  0  0  0
  152.5005   44.4972  144.2973 N   0  0  0  0  0  0  0  0  0  0  0  0
  152.4586   44.0853  145.5785 C   0  0  0  0  0  0  0  0  0  0  0  0
  151.4199   43.3245  145.9903 N   0  0  0  0  0  0  0  0  0  0  0  0
  153.4086   44.3883  146.4921 N   0  0  0  0  0  0  0  0  0  0  0  0
  154.4785   45.1407  146.1573 C   0  0  0  0  0  0  0  0  0  0  0  0
  160.2980   44.0481  149.1586 P   0  0  2  0  0  0  0  0  0  0  0  0
  159.7016   42.9283  148.3410 O   0  0  0  0  0  0  0  0  0  0  0  0
  161.0520   43.7597  150.4433 O   0  0  0  0  0  0  0  0  0  0  0  0
  161.2345   44.9210  148.1735 O   0  0  0  0  0  0  0  0  0  0  0  0
  162.1748   45.8478  148.7151 C   0  0  0  0  0  0  0  0  0  0  0  0
  162.6358   46.9004  147.7020 C   0  0  1  0  0  0  0  0  0  0  0  0
  163.5219   46.2929  146.7594 O   0  0  0  0  0  0  0  0  0  0  0  0
  161.5168   47.5572  146.8969 C   0  0  1  0  0  0  0  0  0  0  0  0
  161.0802   48.7848  147.4789 O   0  0  0  0  0  0  0  0  0  0  0  0
  162.1778   47.7827  145.5499 C   0  0  1  0  0  0  0  0  0  0  0  0
  162.8774   49.0300  145.5289 O   0  0  0  0  0  0  0  0  0  0  0  0
  163.2090   46.6812  145.4191 C   0  0  2  0  0  0  0  0  0  0  0  0
  162.6092   45.5216  144.7137 N   0  0  0  0  0  0  0  0  0  0  0  0
  163.0545   44.2508  144.7703 C   0  0  0  0  0  0  0  0  0  0  0  0
  162.2855   43.4098  144.0242 N   0  0  0  0  0  0  0  0  0  0  0  0
  161.3105   44.1499  143.4729 C   0  0  0  0  0  0  0  0  0  0  0  0
  160.1629   43.9029  142.5632 C   0  0  0  0  0  0  0  0  0  0  0  0
  159.8882   42.7646  142.1264 O   0  0  0  0  0  0  0  0  0  0  0  0
  159.4004   44.9477  142.2367 N   0  0  0  0  0  0  0  0  0  0  0  0
  159.6498   46.1881  142.6842 C   0  0  0  0  0  0  0  0  0  0  0  0
  158.8264   47.1673  142.2811 N   0  0  0  0  0  0  0  0  0  0  0  0
  160.6796   46.4945  143.5075 N   0  0  0  0  0  0  0  0  0  0  0  0
  161.5316   45.5367  143.9294 C   0  0  0  0  0  0  0  0  0  0  0  0
  1  3  2  6  0  0  0
  1 32  1  0  0  0  0
  1  2  1  0  0  0  0
  1  4  1  0  0  0  0
  4  5  1  0  0  0  0
  6  5  1  6  0  0  0
  7  6  1  0  0  0  0
  8  6  1  0  0  0  0
  8 10  1  0  0  0  0
  8  9  1  1  0  0  0
 10 11  1  1  0  0  0
 12 13  1  6  0  0  0
 12  7  1  0  0  0  0
 12 10  1  0  0  0  0
 14 13  1  0  0  0  0
 15 16  1  0  0  0  0
 15 14  2  0  0  0  0
 16 23  2  0  0  0  0
 17 16  1  0  0  0  0
 17 19  1  0  0  0  0
 18 17  2  0  0  0  0
 19 20  2  0  0  0  0
 20 22  1  0  0  0  0
 20 21  1  0  0  0  0
 23 13  1  0  0  0  0
 23 22  1  0  0  0  0
 24 25  2  6  0  0  0
 24  9  1  0  0  0  0
 24 26  1  0  0  0  0
 27 28  1  0  0  0  0
 27 24  1  0  0  0  0
 29 30  1  6  0  0  0
 29 28  1  0  0  0  0
 31 32  1  1  0  0  0
 31 29  1  0  0  0  0
 33 34  1  1  0  0  0
 33 35  1  0  0  0  0
 33 31  1  0  0  0  0
 35 36  1  6  0  0  0
 35 30  1  0  0  0  0
 36 37  1  0  0  0  0
 38 37  2  0  0  0  0
 39 38  1  0  0  0  0
 40 41  2  0  0  0  0
 40 39  1  0  0  0  0
 42 40  1  0  0  0  0
 43 42  2  0  0  0  0
 43 45  1  0  0  0  0
 44 43  1  0  0  0  0
 45 46  1  0  0  0  0
 46 39  2  0  0  0  0
 46 36  1  0  0  0  0
M  END
>  <CHROM.1>
52.55889808,-43.76471758,158.81421476,45.91369524,146.33398086,0.12818008
0.17976247,1.39843058

>  <Name>
lig.pdb

>  <RI>
0

>  <Rbt.Current_Directory>
/home/itssahil/PROJECTS/Mol_Feturizer/New_Systems/rnas/4yb0

>  <Rbt.Executable>
rbdock ($Id: //depot/dev/client3/rdock/2013.1/src/exe/rbdock.cxx#4 $)

>  <Rbt.Library>
libRbt.so (2013.1, Build901 2013/11/27)

>  <Rbt.Parameter_File>
/export/apps/rDock/src/rDock_2013.1_src/data/scripts/dock_solv.prm

>  <Rbt.Receptor>
prm/pocket_docking_5.prm

>  <SCORE>
-23.2222

>  <SCORE.INTER>
-23.2563

>  <SCORE.INTER.CONST>
1

>  <SCORE.INTER.POLAR>
0

>  <SCORE.INTER.ROT>
2

>  <SCORE.INTER.SOLV>
16.6375

>  <SCORE.INTER.VDW>
-25.9834

>  <SCORE.INTER.norm>
-0.505572

>  <SCORE.INTRA>
0.0253579

>  <SCORE.INTRA.DIHEDRAL>
-0.00222349

>  <SCORE.INTRA.DIHEDRAL.0>
4.74153

>  <SCORE.INTRA.POLAR>
0

>  <SCORE.INTRA.POLAR.0>
0

>  <SCORE.INTRA.REPUL>
0

>  <SCORE.INTRA.REPUL.0>
0

>  <SCORE.INTRA.SOLV>
0.197948

>  <SCORE.INTRA.SOLV.lig_0>
-60.4375

>  <SCORE.INTRA.VDW>
-0.0725041

>  <SCORE.INTRA.VDW.0>
-1.83689

>  <SCORE.INTRA.norm>
0.000551258

>  <SCORE.RESTR>
0.00873999

>  <SCORE.RESTR.CAVITY>
0.00873999

>  <SCORE.RESTR.norm>
0.00019

>  <SCORE.SYSTEM>
0

>  <SCORE.SYSTEM.CONST>
0

>  <SCORE.SYSTEM.DIHEDRAL>
0

>  <SCORE.SYSTEM.SOLV>
0

>  <SCORE.SYSTEM.norm>
0

>  <SCORE.heavy>
46

>  <SCORE.norm>
-0.504831

>  <RMSD>
4.286

$$$$
lig.pdb
 OpenBabel11021811523D
libRbt.so/2013.1/901 2013/11/27
 46 52  0  0  0  0  0  0  0  0999 V2000
  157.3470   42.2277  147.5856 P   0  0  2  0  0  0  0  0  0  0  0  0
  157.0228   40.8417  148.0989 O   0  0  0  0  0  0  0  0  0  0  0  0
  156.4691   42.7651  146.4848 O   0  0  0  0  0  0  0  0  0  0  0  0
  158.8780   42.3297  147.1052 O   0  0  0  0  0  0  0  0  0  0  0  0
  159.8104   41.2884  147.3647 C   0  0  0  0  0  0  0  0  0  0  0  0
  161.2282   41.7986  147.1663 C   0  0  1  0  0  0  0  0  0  0  0  0
  161.7001   41.3112  145.9182 O   0  0  0  0  0  0  0  0  0  0  0  0
  161.3833   43.3134  147.1181 C   0  0  1  0  0  0  0  0  0  0  0  0
  161.9160   43.7787  148.3494 O   0  0  0  0  0  0  0  0  0  0  0  0
  162.4267   43.5267  146.0444 C   0  0  1  0  0  0  0  0  0  0  0  0
  163.7287   43.5225  146.6332 O   0  0  0  0  0  0  0  0  0  0  0  0
  162.3466   42.3192  145.1563 C   0  0  2  0  0  0  0  0  0  0  0  0
  161.5048   42.6362  143.9783 N   0  0  0  0  0  0  0  0  0  0  0  0
  161.6261   43.7248  143.1989 C   0  0  0  0  0  0  0  0  0  0  0  0
  160.6910   43.7167  142.2187 N   0  0  0  0  0  0  0  0  0  0  0  0
  159.9475   42.6051  142.3616 C   0  0  0  0  0  0  0  0  0  0  0  0
  158.7978   41.9871  141.6599 C   0  0  0  0  0  0  0  0  0  0  0  0
  158.2893   42.5507  140.6610 O   0  0  0  0  0  0  0  0  0  0  0  0
  158.3284   40.8192  142.1312 N   0  0  0  0  0  0  0  0  0  0  0  0
  158.8768   40.2192  143.2047 C   0  0  0  0  0  0  0  0  0  0  0  0
  158.3664   39.0427  143.6317 N   0  0  0  0  0  0  0  0  0  0  0  0
  159.9255   40.7280  143.8904 N   0  0  0  0  0  0  0  0  0  0  0  0
  160.4930   41.8971  143.5239 C   0  0  0  0  0  0  0  0  0  0  0  0
  161.9630   45.3475  148.7649 P   0  0  2  0  0  0  0  0  0  0  0  0
  162.5508   46.1445  147.6258 O   0  0  0  0  0  0  0  0  0  0  0  0
  162.5790   45.3966  150.1505 O   0  0  0  0  0  0  0  0  0  0  0  0
  160.3958   45.7266  148.8628 O   0  0  0  0  0  0  0  0  0  0  0  0
  159.6477   45.3827  150.0283 C   0  0  0  0  0  0  0  0  0  0  0  0
  158.1339   45.3798  149.7940 C   0  0  1  0  0  0  0  0  0  0  0  0
  157.6695   46.7272  149.6873 O   0  0  0  0  0  0  0  0  0  0  0  0
  157.6760   44.6532  148.5313 C   0  0  1  0  0  0  0  0  0  0  0  0
  157.3076   43.2991  148.7896 O   0  0  0  0  0  0  0  0  0  0  0  0
  156.4823   45.4827  148.0966 C   0  0  1  0  0  0  0  0  0  0  0  0
  155.2884   45.0350  148.7448 O   0  0  0  0  0  0  0  0  0  0  0  0
  156.7675   46.8862  148.5890 C   0  0  2  0  0  0  0  0  0  0  0  0
  157.4484   47.6580  147.5199 N   0  0  0  0  0  0  0  0  0  0  0  0
  158.6049   48.3368  147.6552 C   0  0  0  0  0  0  0  0  0  0  0  0
  158.9821   48.9338  146.4905 N   0  0  0  0  0  0  0  0  0  0  0  0
  158.0517   48.6309  145.5714 C   0  0  0  0  0  0  0  0  0  0  0  0
  157.8209   48.9436  144.1380 C   0  0  0  0  0  0  0  0  0  0  0  0
  158.6152   49.6383  143.4682 O   0  0  0  0  0  0  0  0  0  0  0  0
  156.7311   48.4312  143.5641 N   0  0  0  0  0  0  0  0  0  0  0  0
  155.8513   47.6745  144.2381 C   0  0  0  0  0  0  0  0  0  0  0  0
  154.7823   47.2227  143.5655 N   0  0  0  0  0  0  0  0  0  0  0  0
  155.9870   47.3533  145.5461 N   0  0  0  0  0  0  0  0  0  0  0  0
  157.0464   47.7940  146.2565 C   0  0  0  0  0  0  0  0  0  0  0  0
  1  3  2  6  0  0  0
  1 32  1  0  0  0  0
  1  2  1  0  0  0  0
  1  4  1  0  0  0  0
  4  5  1  0  0  0  0
  6  5  1  6  0  0  0
  7  6  1  0  0  0  0
  8  6  1  0  0  0  0
  8 10  1  0  0  0  0
  8  9  1  1  0  0  0
 10 11  1  1  0  0  0
 12 13  1  6  0  0  0
 12  7  1  0  0  0  0
 12 10  1  0  0  0  0
 14 13  1  0  0  0  0
 15 16  1  0  0  0  0
 15 14  2  0  0  0  0
 16 23  2  0  0  0  0
 17 16  1  0  0  0  0
 17 19  1  0  0  0  0
 18 17  2  0  0  0  0
 19 20  2  0  0  0  0
 20 22  1  0  0  0  0
 20 21  1  0  0  0  0
 23 13  1  0  0  0  0
 23 22  1  0  0  0  0
 24 25  2  6  0  0  0
 24  9  1  0  0  0  0
 24 26  1  0  0  0  0
 27 28  1  0  0  0  0
 27 24  1  0  0  0  0
 29 30  1  6  0  0  0
 29 28  1  0  0  0  0
 31 32  1  1  0  0  0
 31 29  1  0  0  0  0
 33 34  1  1  0  0  0
 33 35  1  0  0  0  0
 33 31  1  0  0  0  0
 35 36  1  6  0  0  0
 35 30  1  0  0  0  0
 36 37  1  0  0  0  0
 38 37  2  0  0  0  0
 39 38  1  0  0  0  0
 40 41  2  0  0  0  0
 40 39  1  0  0  0  0
 42 40  1  0  0  0  0
 43 42  2  0  0  0  0
 43 45  1  0  0  0  0
 44 43  1  0  0  0  0
 45 46  1  0  0  0  0
 46 39  2  0  0  0  0
 46 36  1  0  0  0  0
M  END
>  <CHROM.1>
164.24175771,-12.78865397,159.12857847,44.40065692,146.25588048,-1.01894428
-0.85929786,0.92530859

>  <Name>
lig.pdb

>  <RI>
0

>  <Rbt.Current_Directory>
/home/itssahil/PROJECTS/Mol_Feturizer/New_Systems/rnas/4yb0

>  <Rbt.Executable>
rbdock ($Id: //depot/dev/client3/rdock/2013.1/src/exe/rbdock.cxx#4 $)

>  <Rbt.Library>
libRbt.so (2013.1, Build901 2013/11/27)

>  <Rbt.Parameter_File>
/export/apps/rDock/src/rDock_2013.1_src/data/scripts/dock_solv.prm

>  <Rbt.Receptor>
prm/pocket_docking_8.prm

>  <SCORE>
-19.2164

>  <SCORE.INTER>
-19.2484

>  <SCORE.INTER.CONST>
1

>  <SCORE.INTER.POLAR>
0

>  <SCORE.INTER.ROT>
2

>  <SCORE.INTER.SOLV>
25.3422

>  <SCORE.INTER.VDW>
-26.213

>  <SCORE.INTER.norm>
-0.418444

>  <SCORE.INTRA>
0.0066297

>  <SCORE.INTRA.DIHEDRAL>
-0.0130678

>  <SCORE.INTRA.DIHEDRAL.0>
4.74153

>  <SCORE.INTRA.POLAR>
0

>  <SCORE.INTRA.POLAR.0>
0

>  <SCORE.INTRA.REPUL>
0

>  <SCORE.INTRA.REPUL.0>
0

>  <SCORE.INTRA.SOLV>
0.350955

>  <SCORE.INTRA.SOLV.lig_0>
-60.4375

>  <SCORE.INTRA.VDW>
-0.162314

>  <SCORE.INTRA.VDW.0>
-1.83689

>  <SCORE.INTRA.norm>
0.000144124

>  <SCORE.RESTR>
0.0253755

>  <SCORE.RESTR.CAVITY>
0.0253755

>  <SCORE.RESTR.norm>
0.000551641

>  <SCORE.SYSTEM>
0

>  <SCORE.SYSTEM.CONST>
0

>  <SCORE.SYSTEM.DIHEDRAL>
0

>  <SCORE.SYSTEM.SOLV>
0

>  <SCORE.SYSTEM.norm>
0

>  <SCORE.heavy>
46

>  <SCORE.norm>
-0.417748

>  <RMSD>
4.359

$$$$
lig.pdb
 OpenBabel11021811523D
libRbt.so/2013.1/901 2013/11/27
 46 52  0  0  0  0  0  0  0  0999 V2000
  160.5979   46.6874  142.1507 P   0  0  2  0  0  0  0  0  0  0  0  0
  160.9125   47.6564  141.0319 O   0  0  0  0  0  0  0  0  0  0  0  0
  159.9378   45.3907  141.7583 O   0  0  0  0  0  0  0  0  0  0  0  0
  159.7049   47.3830  143.2926 O   0  0  0  0  0  0  0  0  0  0  0  0
  159.4671   48.7846  143.3008 C   0  0  0  0  0  0  0  0  0  0  0  0
  158.9492   49.2161  144.6629 C   0  0  1  0  0  0  0  0  0  0  0  0
  157.5481   49.4241  144.5546 O   0  0  0  0  0  0  0  0  0  0  0  0
  159.1447   48.2114  145.7913 C   0  0  1  0  0  0  0  0  0  0  0  0
  160.2216   48.6259  146.6190 O   0  0  0  0  0  0  0  0  0  0  0  0
  157.8664   48.3267  146.5911 C   0  0  1  0  0  0  0  0  0  0  0  0
  158.0210   49.3253  147.6014 O   0  0  0  0  0  0  0  0  0  0  0  0
  156.8320   48.8364  145.6300 C   0  0  2  0  0  0  0  0  0  0  0  0
  156.0471   47.6927  145.1079 N   0  0  0  0  0  0  0  0  0  0  0  0
  155.6753   47.5168  143.8280 C   0  0  0  0  0  0  0  0  0  0  0  0
  154.9552   46.3774  143.6923 N   0  0  0  0  0  0  0  0  0  0  0  0
  154.8554   45.8011  144.9034 C   0  0  0  0  0  0  0  0  0  0  0  0
  154.2304   44.5782  145.4602 C   0  0  0  0  0  0  0  0  0  0  0  0
  153.5952   43.7960  144.7127 O   0  0  0  0  0  0  0  0  0  0  0  0
  154.3673   44.3468  146.7770 N   0  0  0  0  0  0  0  0  0  0  0  0
  155.0487   45.1903  147.5753 C   0  0  0  0  0  0  0  0  0  0  0  0
  155.1583   44.9043  148.8919 N   0  0  0  0  0  0  0  0  0  0  0  0
  155.6422   46.3221  147.1329 N   0  0  0  0  0  0  0  0  0  0  0  0
  155.5806   46.6748  145.8310 C   0  0  0  0  0  0  0  0  0  0  0  0
  160.8931   47.6757  147.7513 P   0  0  2  0  0  0  0  0  0  0  0  0
  159.8025   47.0737  148.6036 O   0  0  0  0  0  0  0  0  0  0  0  0
  162.0099   48.4913  148.3754 O   0  0  0  0  0  0  0  0  0  0  0  0
  161.5312   46.4831  146.8683 O   0  0  0  0  0  0  0  0  0  0  0  0
  162.7811   46.6726  146.2063 C   0  0  0  0  0  0  0  0  0  0  0  0
  163.0203   45.6716  145.0716 C   0  0  1  0  0  0  0  0  0  0  0  0
  163.3171   44.3889  145.6277 O   0  0  0  0  0  0  0  0  0  0  0  0
  161.8418   45.4787  144.1198 C   0  0  1  0  0  0  0  0  0  0  0  0
  161.9377   46.3106  142.9644 O   0  0  0  0  0  0  0  0  0  0  0  0
  161.9549   44.0091  143.7599 C   0  0  1  0  0  0  0  0  0  0  0  0
  162.8369   43.8237  142.6493 O   0  0  0  0  0  0  0  0  0  0  0  0
  162.5947   43.3488  144.9633 C   0  0  2  0  0  0  0  0  0  0  0  0
  161.5365   42.8455  145.8738 N   0  0  0  0  0  0  0  0  0  0  0  0
  161.4517   43.0967  147.1953 C   0  0  0  0  0  0  0  0  0  0  0  0
  160.3601   42.5050  147.7553 N   0  0  0  0  0  0  0  0  0  0  0  0
  159.7135   41.8577  146.7728 C   0  0  0  0  0  0  0  0  0  0  0  0
  158.4946   41.0159  146.6664 C   0  0  0  0  0  0  0  0  0  0  0  0
  157.7635   40.7696  147.6497 O   0  0  0  0  0  0  0  0  0  0  0  0
  158.1794   40.5389  145.4611 N   0  0  0  0  0  0  0  0  0  0  0  0
  158.9280   40.7800  144.3737 C   0  0  0  0  0  0  0  0  0  0  0  0
  158.5254   40.2388  143.2143 N   0  0  0  0  0  0  0  0  0  0  0  0
  160.0555   41.5289  144.3914 N   0  0  0  0  0  0  0  0  0  0  0  0
  160.4942   42.0849  145.5402 C   0  0  0  0  0  0  0  0  0  0  0  0
  1  3  2  6  0  0  0
  1 32  1  0  0  0  0
  1  2  1  0  0  0  0
  1  4  1  0  0  0  0
  4  5  1  0  0  0  0
  6  5  1  6  0  0  0
  7  6  1  0  0  0  0
  8  6  1  0  0  0  0
  8 10  1  0  0  0  0
  8  9  1  1  0  0  0
 10 11  1  1  0  0  0
 12 13  1  6  0  0  0
 12  7  1  0  0  0  0
 12 10  1  0  0  0  0
 14 13  1  0  0  0  0
 15 16  1  0  0  0  0
 15 14  2  0  0  0  0
 16 23  2  0  0  0  0
 17 16  1  0  0  0  0
 17 19  1  0  0  0  0
 18 17  2  0  0  0  0
 19 20  2  0  0  0  0
 20 22  1  0  0  0  0
 20 21  1  0  0  0  0
 23 13  1  0  0  0  0
 23 22  1  0  0  0  0
 24 25  2  1  0  0  0
 24  9  1  0  0  0  0
 24 26  1  0  0  0  0
 27 28  1  0  0  0  0
 27 24  1  0  0  0  0
 29 30  1  1  0  0  0
 29 28  1  0  0  0  0
 31 32  1  6  0  0  0
 31 29  1  0  0  0  0
 33 34  1  6  0  0  0
 33 35  1  0  0  0  0
 33 31  1  0  0  0  0
 35 36  1  1  0  0  0
 35 30  1  0  0  0  0
 36 37  1  0  0  0  0
 38 37  2  0  0  0  0
 39 38  1  0  0  0  0
 40 41  2  0  0  0  0
 40 39  1  0  0  0  0
 42 40  1  0  0  0  0
 43 42  2  0  0  0  0
 43 45  1  0  0  0  0
 44 43  1  0  0  0  0
 45 46  1  0  0  0  0
 46 39  2  0  0  0  0
 46 36  1  0  0  0  0
M  END
>  <CHROM.1>
-21.98208603,-13.76486927,159.16299082,45.54540570,145.36712711,-0.32776728
0.22440356,-0.03363233

>  <Name>
lig.pdb

>  <RI>
0

>  <Rbt.Current_Directory>
/home/itssahil/PROJECTS/Mol_Feturizer/New_Systems/rnas/4yb0

>  <Rbt.Executable>
rbdock ($Id: //depot/dev/client3/rdock/2013.1/src/exe/rbdock.cxx#4 $)

>  <Rbt.Library>
libRbt.so (2013.1, Build901 2013/11/27)

>  <Rbt.Parameter_File>
/export/apps/rDock/src/rDock_2013.1_src/data/scripts/dock_solv.prm

>  <Rbt.Receptor>
prm/pocket_docking_5.prm

>  <SCORE>
-18.6685

>  <SCORE.INTER>
-19.3518

>  <SCORE.INTER.CONST>
1

>  <SCORE.INTER.POLAR>
0

>  <SCORE.INTER.ROT>
2

>  <SCORE.INTER.SOLV>
21.7675

>  <SCORE.INTER.VDW>
-25.0904

>  <SCORE.INTER.norm>
-0.420692

>  <SCORE.INTRA>
0.402461

>  <SCORE.INTRA.DIHEDRAL>
0.0591033

>  <SCORE.INTRA.DIHEDRAL.0>
4.74153

>  <SCORE.INTRA.POLAR>
0

>  <SCORE.INTRA.POLAR.0>
0

>  <SCORE.INTRA.REPUL>
0

>  <SCORE.INTRA.REPUL.0>
0

>  <SCORE.INTRA.SOLV>
0.126555

>  <SCORE.INTRA.SOLV.lig_0>
-60.4375

>  <SCORE.INTRA.VDW>
0.309632

>  <SCORE.INTRA.VDW.0>
-1.83689

>  <SCORE.INTRA.norm>
0.00874915

>  <SCORE.RESTR>
0.28087

>  <SCORE.RESTR.CAVITY>
0.28087

>  <SCORE.RESTR.norm>
0.00610586

>  <SCORE.SYSTEM>
0

>  <SCORE.SYSTEM.CONST>
0

>  <SCORE.SYSTEM.DIHEDRAL>
0

>  <SCORE.SYSTEM.SOLV>
0

>  <SCORE.SYSTEM.norm>
0

>  <SCORE.heavy>
46

>  <SCORE.norm>
-0.405837

>  <RMSD>
4.407

$$$$
lig.pdb
 OpenBabel11021811523D
libRbt.so/2013.1/901 2013/11/27
 46 52  0  0  0  0  0  0  0  0999 V2000
  159.1378   48.3073  148.1009 P   0  0  2  0  0  0  0  0  0  0  0  0
  158.6873   49.1957  149.2399 O   0  0  0  0  0  0  0  0  0  0  0  0
  159.0608   48.8921  146.7141 O   0  0  0  0  0  0  0  0  0  0  0  0
  158.3463   46.9078  148.1030 O   0  0  0  0  0  0  0  0  0  0  0  0
  157.5110   46.5268  149.1885 C   0  0  0  0  0  0  0  0  0  0  0  0
  157.2152   45.0377  149.1192 C   0  0  1  0  0  0  0  0  0  0  0  0
  155.8951   44.8745  148.6207 O   0  0  0  0  0  0  0  0  0  0  0  0
  158.1207   44.2275  148.2002 C   0  0  1  0  0  0  0  0  0  0  0  0
  159.0629   43.5017  148.9761 O   0  0  0  0  0  0  0  0  0  0  0  0
  157.1759   43.2354  147.5598 C   0  0  1  0  0  0  0  0  0  0  0  0
  157.1107   42.0515  148.3574 O   0  0  0  0  0  0  0  0  0  0  0  0
  155.8185   43.8740  147.6168 C   0  0  2  0  0  0  0  0  0  0  0  0
  155.5329   44.5271  146.3174 N   0  0  0  0  0  0  0  0  0  0  0  0
  156.4260   45.1862  145.5588 C   0  0  0  0  0  0  0  0  0  0  0  0
  155.8350   45.6754  144.4423 N   0  0  0  0  0  0  0  0  0  0  0  0
  154.5355   45.3302  144.4734 C   0  0  0  0  0  0  0  0  0  0  0  0
  153.3531   45.5274  143.6023 C   0  0  0  0  0  0  0  0  0  0  0  0
  153.4572   46.1717  142.5308 O   0  0  0  0  0  0  0  0  0  0  0  0
  152.1836   44.9991  144.0019 N   0  0  0  0  0  0  0  0  0  0  0  0
  152.0768   44.3098  145.1536 C   0  0  0  0  0  0  0  0  0  0  0  0
  150.8761   43.7965  145.5029 N   0  0  0  0  0  0  0  0  0  0  0  0
  153.1142   44.0935  145.9937 N   0  0  0  0  0  0  0  0  0  0  0  0
  154.3456   44.5710  145.7132 C   0  0  0  0  0  0  0  0  0  0  0  0
  160.3520   42.7485  148.3383 P   0  0  2  0  0  0  0  0  0  0  0  0
  159.9055   41.9072  147.1674 O   0  0  0  0  0  0  0  0  0  0  0  0
  161.0957   42.1277  149.5060 O   0  0  0  0  0  0  0  0  0  0  0  0
  161.2154   43.9797  147.7483 O   0  0  0  0  0  0  0  0  0  0  0  0
  162.0327   44.7623  148.6178 C   0  0  0  0  0  0  0  0  0  0  0  0
  162.4047   46.1269  148.0295 C   0  0  1  0  0  0  0  0  0  0  0  0
  163.3786   45.9476  146.9990 O   0  0  0  0  0  0  0  0  0  0  0  0
  161.2441   46.9028  147.4106 C   0  0  1  0  0  0  0  0  0  0  0  0
  160.6593   47.8254  148.3287 O   0  0  0  0  0  0  0  0  0  0  0  0
  161.9150   47.6178  146.2527 C   0  0  1  0  0  0  0  0  0  0  0  0
  162.4743   48.8633  146.6792 O   0  0  0  0  0  0  0  0  0  0  0  0
  163.0638   46.7221  145.8387 C   0  0  2  0  0  0  0  0  0  0  0  0
  162.6150   45.8062  144.7607 N   0  0  0  0  0  0  0  0  0  0  0  0
  163.3215   44.7719  144.2631 C   0  0  0  0  0  0  0  0  0  0  0  0
  162.6358   44.1107  143.2895 N   0  0  0  0  0  0  0  0  0  0  0  0
  161.4500   44.7253  143.1540 C   0  0  0  0  0  0  0  0  0  0  0  0
  160.2474   44.5556  142.2992 C   0  0  0  0  0  0  0  0  0  0  0  0
  160.1513   43.6405  141.4534 O   0  0  0  0  0  0  0  0  0  0  0  0
  159.2389   45.4101  142.4792 N   0  0  0  0  0  0  0  0  0  0  0  0
  159.2908   46.4051  143.3782 C   0  0  0  0  0  0  0  0  0  0  0  0
  158.2249   47.2147  143.4656 N   0  0  0  0  0  0  0  0  0  0  0  0
  160.3531   46.6299  144.1863 N   0  0  0  0  0  0  0  0  0  0  0  0
  161.4452   45.8396  144.1230 C   0  0  0  0  0  0  0  0  0  0  0  0
  1  3  2  6  0  0  0
  1 32  1  0  0  0  0
  1  2  1  0  0  0  0
  1  4  1  0  0  0  0
  4  5  1  0  0  0  0
  6  5  1  6  0  0  0
  7  6  1  0  0  0  0
  8  6  1  0  0  0  0
  8 10  1  0  0  0  0
  8  9  1  1  0  0  0
 10 11  1  1  0  0  0
 12 13  1  6  0  0  0
 12  7  1  0  0  0  0
 12 10  1  0  0  0  0
 14 13  1  0  0  0  0
 15 16  1  0  0  0  0
 15 14  2  0  0  0  0
 16 23  2  0  0  0  0
 17 16  1  0  0  0  0
 17 19  1  0  0  0  0
 18 17  2  0  0  0  0
 19 20  2  0  0  0  0
 20 22  1  0  0  0  0
 20 21  1  0  0  0  0
 23 13  1  0  0  0  0
 23 22  1  0  0  0  0
 24 25  2  6  0  0  0
 24  9  1  0  0  0  0
 24 26  1  0  0  0  0
 27 28  1  0  0  0  0
 27 24  1  0  0  0  0
 29 30  1  6  0  0  0
 29 28  1  0  0  0  0
 31 32  1  1  0  0  0
 31 29  1  0  0  0  0
 33 34  1  1  0  0  0
 33 35  1  0  0  0  0
 33 31  1  0  0  0  0
 35 36  1  6  0  0  0
 35 30  1  0  0  0  0
 36 37  1  0  0  0  0
 38 37  2  0  0  0  0
 39 38  1  0  0  0  0
 40 41  2  0  0  0  0
 40 39  1  0  0  0  0
 42 40  1  0  0  0  0
 43 42  2  0  0  0  0
 43 45  1  0  0  0  0
 44 43  1  0  0  0  0
 45 46  1  0  0  0  0
 46 39  2  0  0  0  0
 46 36  1  0  0  0  0
M  END
>  <CHROM.1>
77.34605111,-56.97905662,158.66526560,45.35283549,146.29188948,0.13549622
0.16011379,1.71358910

>  <Name>
lig.pdb

>  <RI>
0

>  <Rbt.Current_Directory>
/home/itssahil/PROJECTS/Mol_Feturizer/New_Systems/rnas/4yb0

>  <Rbt.Executable>
rbdock ($Id: //depot/dev/client3/rdock/2013.1/src/exe/rbdock.cxx#4 $)

>  <Rbt.Library>
libRbt.so (2013.1, Build901 2013/11/27)

>  <Rbt.Parameter_File>
/export/apps/rDock/src/rDock_2013.1_src/data/scripts/dock_solv.prm

>  <Rbt.Receptor>
prm/pocket_docking_8.prm

>  <SCORE>
-23.9402

>  <SCORE.INTER>
-24.5186

>  <SCORE.INTER.CONST>
1

>  <SCORE.INTER.POLAR>
0

>  <SCORE.INTER.ROT>
2

>  <SCORE.INTER.SOLV>
17.2024

>  <SCORE.INTER.VDW>
-27.0132

>  <SCORE.INTER.norm>
-0.533012

>  <SCORE.INTRA>
0.578331

>  <SCORE.INTRA.DIHEDRAL>
0.087179

>  <SCORE.INTRA.DIHEDRAL.0>
4.74153

>  <SCORE.INTRA.POLAR>
0

>  <SCORE.INTRA.POLAR.0>
0

>  <SCORE.INTRA.REPUL>
0.00737053

>  <SCORE.INTRA.REPUL.0>
0

>  <SCORE.INTRA.SOLV>
1.17995

>  <SCORE.INTRA.SOLV.lig_0>
-60.4375

>  <SCORE.INTRA.VDW>
-0.0920863

>  <SCORE.INTRA.VDW.0>
-1.83689

>  <SCORE.INTRA.norm>
0.0125724

>  <SCORE.RESTR>
0

>  <SCORE.RESTR.CAVITY>
0

>  <SCORE.RESTR.norm>
0

>  <SCORE.SYSTEM>
0

>  <SCORE.SYSTEM.CONST>
0

>  <SCORE.SYSTEM.DIHEDRAL>
0

>  <SCORE.SYSTEM.SOLV>
0

>  <SCORE.SYSTEM.norm>
0

>  <SCORE.heavy>
46

>  <SCORE.norm>
-0.52044

>  <RMSD>
4.410

$$$$
lig.pdb
 OpenBabel11021811523D
libRbt.so/2013.1/901 2013/11/27
 46 52  0  0  0  0  0  0  0  0999 V2000
  159.0978   48.3985  147.9989 P   0  0  2  0  0  0  0  0  0  0  0  0
  158.6259   49.2976  149.1207 O   0  0  0  0  0  0  0  0  0  0  0  0
  159.0409   48.9678  146.6047 O   0  0  0  0  0  0  0  0  0  0  0  0
  158.3116   46.9960  148.0038 O   0  0  0  0  0  0  0  0  0  0  0  0
  157.4605   46.6237  149.0799 C   0  0  0  0  0  0  0  0  0  0  0  0
  157.1714   45.1328  149.0223 C   0  0  1  0  0  0  0  0  0  0  0  0
  155.8600   44.9590  148.5046 O   0  0  0  0  0  0  0  0  0  0  0  0
  158.0945   44.3162  148.1269 C   0  0  1  0  0  0  0  0  0  0  0  0
  159.0268   43.6026  148.9257 O   0  0  0  0  0  0  0  0  0  0  0  0
  157.1638   43.3134  147.4825 C   0  0  1  0  0  0  0  0  0  0  0  0
  157.0902   42.1380  148.2919 O   0  0  0  0  0  0  0  0  0  0  0  0
  155.8033   43.9472  147.5107 C   0  0  2  0  0  0  0  0  0  0  0  0
  155.5361   44.5850  146.1998 N   0  0  0  0  0  0  0  0  0  0  0  0
  156.4435   45.2211  145.4386 C   0  0  0  0  0  0  0  0  0  0  0  0
  155.8675   45.7016  144.3105 N   0  0  0  0  0  0  0  0  0  0  0  0
  154.5634   45.3740  144.3367 C   0  0  0  0  0  0  0  0  0  0  0  0
  153.3902   45.5739  143.4537 C   0  0  0  0  0  0  0  0  0  0  0  0
  153.5108   46.2010  142.3738 O   0  0  0  0  0  0  0  0  0  0  0  0
  152.2109   45.0668  143.8519 N   0  0  0  0  0  0  0  0  0  0  0  0
  152.0863   44.3959  145.0126 C   0  0  0  0  0  0  0  0  0  0  0  0
  150.8763   43.9036  145.3602 N   0  0  0  0  0  0  0  0  0  0  0  0
  153.1144   44.1784  145.8638 N   0  0  0  0  0  0  0  0  0  0  0  0
  154.3541   44.6355  145.5859 C   0  0  0  0  0  0  0  0  0  0  0  0
  160.3289   42.8474  148.3170 P   0  0  2  0  0  0  0  0  0  0  0  0
  159.9043   41.9916  147.1484 O   0  0  0  0  0  0  0  0  0  0  0  0
  161.0561   42.2424  149.5032 O   0  0  0  0  0  0  0  0  0  0  0  0
  161.1970   44.0755  147.7273 O   0  0  0  0  0  0  0  0  0  0  0  0
  161.9973   44.8707  148.6011 C   0  0  0  0  0  0  0  0  0  0  0  0
  162.3736   46.2302  148.0038 C   0  0  1  0  0  0  0  0  0  0  0  0
  163.3646   46.0435  146.9910 O   0  0  0  0  0  0  0  0  0  0  0  0
  161.2202   46.9948  147.3579 C   0  0  1  0  0  0  0  0  0  0  0  0
  160.6173   47.9251  148.2564 O   0  0  0  0  0  0  0  0  0  0  0  0
  161.9069   47.6997  146.2031 C   0  0  1  0  0  0  0  0  0  0  0  0
  162.4546   48.9519  146.6247 O   0  0  0  0  0  0  0  0  0  0  0  0
  163.0655   46.8039  145.8174 C   0  0  2  0  0  0  0  0  0  0  0  0
  162.6375   45.8746  144.7425 N   0  0  0  0  0  0  0  0  0  0  0  0
  163.3732   44.8646  144.2374 C   0  0  0  0  0  0  0  0  0  0  0  0
  162.7009   44.1819  143.2694 N   0  0  0  0  0  0  0  0  0  0  0  0
  161.4943   44.7570  143.1453 C   0  0  0  0  0  0  0  0  0  0  0  0
  160.2902   44.5482  142.3013 C   0  0  0  0  0  0  0  0  0  0  0  0
  160.2167   43.6311  141.4553 O   0  0  0  0  0  0  0  0  0  0  0  0
  159.2556   45.3687  142.4913 N   0  0  0  0  0  0  0  0  0  0  0  0
  159.2828   46.3642  143.3909 C   0  0  0  0  0  0  0  0  0  0  0  0
  158.1915   47.1380  143.4889 N   0  0  0  0  0  0  0  0  0  0  0  0
  160.3444   46.6234  144.1896 N   0  0  0  0  0  0  0  0  0  0  0  0
  161.4614   45.8697  144.1155 C   0  0  0  0  0  0  0  0  0  0  0  0
  1  3  2  6  0  0  0
  1 32  1  0  0  0  0
  1  2  1  0  0  0  0
  1  4  1  0  0  0  0
  4  5  1  0  0  0  0
  6  5  1  6  0  0  0
  7  6  1  0  0  0  0
  8  6  1  0  0  0  0
  8 10  1  0  0  0  0
  8  9  1  1  0  0  0
 10 11  1  1  0  0  0
 12 13  1  6  0  0  0
 12  7  1  0  0  0  0
 12 10  1  0  0  0  0
 14 13  1  0  0  0  0
 15 16  1  0  0  0  0
 15 14  2  0  0  0  0
 16 23  2  0  0  0  0
 17 16  1  0  0  0  0
 17 19  1  0  0  0  0
 18 17  2  0  0  0  0
 19 20  2  0  0  0  0
 20 22  1  0  0  0  0
 20 21  1  0  0  0  0
 23 13  1  0  0  0  0
 23 22  1  0  0  0  0
 24 25  2  6  0  0  0
 24  9  1  0  0  0  0
 24 26  1  0  0  0  0
 27 28  1  0  0  0  0
 27 24  1  0  0  0  0
 29 30  1  6  0  0  0
 29 28  1  0  0  0  0
 31 32  1  1  0  0  0
 31 29  1  0  0  0  0
 33 34  1  1  0  0  0
 33 35  1  0  0  0  0
 33 31  1  0  0  0  0
 35 36  1  6  0  0  0
 35 30  1  0  0  0  0
 36 37  1  0  0  0  0
 38 37  2  0  0  0  0
 39 38  1  0  0  0  0
 40 41  2  0  0  0  0
 40 39  1  0  0  0  0
 42 40  1  0  0  0  0
 43 42  2  0  0  0  0
 43 45  1  0  0  0  0
 44 43  1  0  0  0  0
 45 46  1  0  0  0  0
 46 39  2  0  0  0  0
 46 36  1  0  0  0  0
M  END
>  <CHROM.1>
78.45043196,-59.29286074,158.65939350,45.42006276,146.22665666,0.15288291
0.15845452,1.68708230

>  <Name>
lig.pdb

>  <RI>
0

>  <Rbt.Current_Directory>
/home/itssahil/PROJECTS/Mol_Feturizer/New_Systems/rnas/4yb0

>  <Rbt.Executable>
rbdock ($Id: //depot/dev/client3/rdock/2013.1/src/exe/rbdock.cxx#4 $)

>  <Rbt.Library>
libRbt.so (2013.1, Build901 2013/11/27)

>  <Rbt.Parameter_File>
/export/apps/rDock/src/rDock_2013.1_src/data/scripts/dock_solv.prm

>  <Rbt.Receptor>
prm/pocket_docking_8.prm

>  <SCORE>
-23.9548

>  <SCORE.INTER>
-24.6669

>  <SCORE.INTER.CONST>
1

>  <SCORE.INTER.POLAR>
0

>  <SCORE.INTER.ROT>
2

>  <SCORE.INTER.SOLV>
17.2021

>  <SCORE.INTER.VDW>
-27.112

>  <SCORE.INTER.norm>
-0.536237

>  <SCORE.INTRA>
0.712086

>  <SCORE.INTRA.DIHEDRAL>
0.0959639

>  <SCORE.INTRA.DIHEDRAL.0>
4.74153

>  <SCORE.INTRA.POLAR>
0

>  <SCORE.INTRA.POLAR.0>
0

>  <SCORE.INTRA.REPUL>
0.0252092

>  <SCORE.INTRA.REPUL.0>
0

>  <SCORE.INTRA.SOLV>
1.39062

>  <SCORE.INTRA.SOLV.lig_0>
-60.4375

>  <SCORE.INTRA.VDW>
-0.157252

>  <SCORE.INTRA.VDW.0>
-1.83689

>  <SCORE.INTRA.norm>
0.0154801

>  <SCORE.RESTR>
0

>  <SCORE.RESTR.CAVITY>
0

>  <SCORE.RESTR.norm>
0

>  <SCORE.SYSTEM>
0

>  <SCORE.SYSTEM.CONST>
0

>  <SCORE.SYSTEM.DIHEDRAL>
0

>  <SCORE.SYSTEM.SOLV>
0

>  <SCORE.SYSTEM.norm>
0

>  <SCORE.heavy>
46

>  <SCORE.norm>
-0.520757

>  <RMSD>
4.412

$$$$
lig.pdb
 OpenBabel11021811523D
libRbt.so/2013.1/901 2013/11/27
 46 52  0  0  0  0  0  0  0  0999 V2000
  159.1100   48.3373  148.1002 P   0  0  2  0  0  0  0  0  0  0  0  0
  158.6556   49.2205  149.2417 O   0  0  0  0  0  0  0  0  0  0  0  0
  159.0267   48.9243  146.7147 O   0  0  0  0  0  0  0  0  0  0  0  0
  158.3277   46.9326  148.1010 O   0  0  0  0  0  0  0  0  0  0  0  0
  157.4968   46.5440  149.1871 C   0  0  0  0  0  0  0  0  0  0  0  0
  157.2107   45.0531  149.1154 C   0  0  1  0  0  0  0  0  0  0  0  0
  155.8908   44.8823  148.6188 O   0  0  0  0  0  0  0  0  0  0  0  0
  158.1199   44.2508  148.1933 C   0  0  1  0  0  0  0  0  0  0  0  0
  159.0682   43.5297  148.9661 O   0  0  0  0  0  0  0  0  0  0  0  0
  157.1806   43.2537  147.5526 C   0  0  1  0  0  0  0  0  0  0  0  0
  157.1245   42.0678  148.3480 O   0  0  0  0  0  0  0  0  0  0  0  0
  155.8191   43.8832  147.6132 C   0  0  2  0  0  0  0  0  0  0  0  0
  155.5270   44.5370  146.3155 N   0  0  0  0  0  0  0  0  0  0  0  0
  156.4127   45.2096  145.5602 C   0  0  0  0  0  0  0  0  0  0  0  0
  155.8170   45.6950  144.4445 N   0  0  0  0  0  0  0  0  0  0  0  0
  154.5219   45.3336  144.4729 C   0  0  0  0  0  0  0  0  0  0  0  0
  153.3381   45.5189  143.6009 C   0  0  0  0  0  0  0  0  0  0  0  0
  153.4355   46.1678  142.5316 O   0  0  0  0  0  0  0  0  0  0  0  0
  152.1749   44.9746  143.9973 N   0  0  0  0  0  0  0  0  0  0  0  0
  152.0753   44.2803  145.1466 C   0  0  0  0  0  0  0  0  0  0  0  0
  150.8806   43.7509  145.4928 N   0  0  0  0  0  0  0  0  0  0  0  0
  153.1143   44.0742  145.9874 N   0  0  0  0  0  0  0  0  0  0  0  0
  154.3400   44.5679  145.7100 C   0  0  0  0  0  0  0  0  0  0  0  0
  160.3612   42.7862  148.3247 P   0  0  2  0  0  0  0  0  0  0  0  0
  159.9181   41.9442  147.1529 O   0  0  0  0  0  0  0  0  0  0  0  0
  161.1110   42.1680  149.4899 O   0  0  0  0  0  0  0  0  0  0  0  0
  161.2154   44.0242  147.7356 O   0  0  0  0  0  0  0  0  0  0  0  0
  162.0290   44.8104  148.6053 C   0  0  0  0  0  0  0  0  0  0  0  0
  162.3910   46.1786  148.0189 C   0  0  1  0  0  0  0  0  0  0  0  0
  163.3644   46.0077  146.9864 O   0  0  0  0  0  0  0  0  0  0  0  0
  161.2243   46.9480  147.4035 C   0  0  1  0  0  0  0  0  0  0  0  0
  160.6350   47.8650  148.3245 O   0  0  0  0  0  0  0  0  0  0  0  0
  161.8885   47.6697  146.2459 C   0  0  1  0  0  0  0  0  0  0  0  0
  162.4403   48.9180  146.6738 O   0  0  0  0  0  0  0  0  0  0  0  0
  163.0424   46.7823  145.8282 C   0  0  2  0  0  0  0  0  0  0  0  0
  162.5978   45.8657  144.7492 N   0  0  0  0  0  0  0  0  0  0  0  0
  163.3188   44.8505  144.2333 C   0  0  0  0  0  0  0  0  0  0  0  0
  162.6335   44.1825  143.2641 N   0  0  0  0  0  0  0  0  0  0  0  0
  161.4332   44.7729  143.1502 C   0  0  0  0  0  0  0  0  0  0  0  0
  160.2224   44.5844  142.3110 C   0  0  0  0  0  0  0  0  0  0  0  0
  160.1336   43.6742  141.4592 O   0  0  0  0  0  0  0  0  0  0  0  0
  159.1987   45.4159  142.5121 N   0  0  0  0  0  0  0  0  0  0  0  0
  159.2424   46.4047  143.4183 C   0  0  0  0  0  0  0  0  0  0  0  0
  158.1610   47.1908  143.5273 N   0  0  0  0  0  0  0  0  0  0  0  0
  160.3111   46.6457  144.2133 N   0  0  0  0  0  0  0  0  0  0  0  0
  161.4186   45.8792  144.1282 C   0  0  0  0  0  0  0  0  0  0  0  0
  1  3  2  6  0  0  0
  1 32  1  0  0  0  0
  1  2  1  0  0  0  0
  1  4  1  0  0  0  0
  4  5  1  0  0  0  0
  6  5  1  6  0  0  0
  7  6  1  0  0  0  0
  8  6  1  0  0  0  0
  8 10  1  0  0  0  0
  8  9  1  1  0  0  0
 10 11  1  1  0  0  0
 12 13  1  6  0  0  0
 12  7  1  0  0  0  0
 12 10  1  0  0  0  0
 14 13  1  0  0  0  0
 15 16  1  0  0  0  0
 15 14  2  0  0  0  0
 16 23  2  0  0  0  0
 17 16  1  0  0  0  0
 17 19  1  0  0  0  0
 18 17  2  0  0  0  0
 19 20  2  0  0  0  0
 20 22  1  0  0  0  0
 20 21  1  0  0  0  0
 23 13  1  0  0  0  0
 23 22  1  0  0  0  0
 24 25  2  6  0  0  0
 24  9  1  0  0  0  0
 24 26  1  0  0  0  0
 27 28  1  0  0  0  0
 27 24  1  0  0  0  0
 29 30  1  6  0  0  0
 29 28  1  0  0  0  0
 31 32  1  1  0  0  0
 31 29  1  0  0  0  0
 33 34  1  1  0  0  0
 33 35  1  0  0  0  0
 33 31  1  0  0  0  0
 35 36  1  6  0  0  0
 35 30  1  0  0  0  0
 36 37  1  0  0  0  0
 38 37  2  0  0  0  0
 39 38  1  0  0  0  0
 40 41  2  0  0  0  0
 40 39  1  0  0  0  0
 42 40  1  0  0  0  0
 43 42  2  0  0  0  0
 43 45  1  0  0  0  0
 44 43  1  0  0  0  0
 45 46  1  0  0  0  0
 46 39  2  0  0  0  0
 46 36  1  0  0  0  0
M  END
>  <CHROM.1>
76.96071669,-58.12837789,158.65189544,45.37762379,146.28949524,0.13631449
0.16705682,1.70762895

>  <Name>
lig.pdb

>  <RI>
0

>  <Rbt.Current_Directory>
/home/itssahil/PROJECTS/Mol_Feturizer/New_Systems/rnas/4yb0

>  <Rbt.Executable>
rbdock ($Id: //depot/dev/client3/rdock/2013.1/src/exe/rbdock.cxx#4 $)

>  <Rbt.Library>
libRbt.so (2013.1, Build901 2013/11/27)

>  <Rbt.Parameter_File>
/export/apps/rDock/src/rDock_2013.1_src/data/scripts/dock_solv.prm

>  <Rbt.Receptor>
prm/pocket_docking_7.prm

>  <SCORE>
-23.9088

>  <SCORE.INTER>
-24.4826

>  <SCORE.INTER.CONST>
1

>  <SCORE.INTER.POLAR>
0

>  <SCORE.INTER.ROT>
2

>  <SCORE.INTER.SOLV>
17.1499

>  <SCORE.INTER.VDW>
-26.9717

>  <SCORE.INTER.norm>
-0.53223

>  <SCORE.INTRA>
0.573788

>  <SCORE.INTRA.DIHEDRAL>
0.0902153

>  <SCORE.INTRA.DIHEDRAL.0>
4.74153

>  <SCORE.INTRA.POLAR>
0

>  <SCORE.INTRA.POLAR.0>
0

>  <SCORE.INTRA.REPUL>
0.0154949

>  <SCORE.INTRA.REPUL.0>
0

>  <SCORE.INTRA.SOLV>
1.28195

>  <SCORE.INTRA.SOLV.lig_0>
-60.4375

>  <SCORE.INTRA.VDW>
-0.189772

>  <SCORE.INTRA.VDW.0>
-1.83689

>  <SCORE.INTRA.norm>
0.0124736

>  <SCORE.RESTR>
0

>  <SCORE.RESTR.CAVITY>
0

>  <SCORE.RESTR.norm>
0

>  <SCORE.SYSTEM>
0

>  <SCORE.SYSTEM.CONST>
0

>  <SCORE.SYSTEM.DIHEDRAL>
0

>  <SCORE.SYSTEM.SOLV>
0

>  <SCORE.SYSTEM.norm>
0

>  <SCORE.heavy>
46

>  <SCORE.norm>
-0.519757

>  <RMSD>
4.425

$$$$
lig.pdb
 OpenBabel11021811523D
libRbt.so/2013.1/901 2013/11/27
 46 52  0  0  0  0  0  0  0  0999 V2000
  159.7551   49.4224  147.3694 P   0  0  2  0  0  0  0  0  0  0  0  0
  159.4774   50.6483  148.2119 O   0  0  0  0  0  0  0  0  0  0  0  0
  159.6525   49.5897  145.8752 O   0  0  0  0  0  0  0  0  0  0  0  0
  158.8189   48.1899  147.8047 O   0  0  0  0  0  0  0  0  0  0  0  0
  158.0190   48.2412  148.9788 C   0  0  0  0  0  0  0  0  0  0  0  0
  157.5603   46.8425  149.3570 C   0  0  1  0  0  0  0  0  0  0  0  0
  156.2009   46.7055  148.9681 O   0  0  0  0  0  0  0  0  0  0  0  0
  158.3120   45.6986  148.6882 C   0  0  1  0  0  0  0  0  0  0  0  0
  159.2183   45.1166  149.6136 O   0  0  0  0  0  0  0  0  0  0  0  0
  157.2263   44.6875  148.3948 C   0  0  1  0  0  0  0  0  0  0  0  0
  157.0851   43.7994  149.5053 O   0  0  0  0  0  0  0  0  0  0  0  0
  155.9523   45.4762  148.3036 C   0  0  2  0  0  0  0  0  0  0  0  0
  155.6558   45.7589  146.8791 N   0  0  0  0  0  0  0  0  0  0  0  0
  156.4040   46.5169  146.0587 C   0  0  0  0  0  0  0  0  0  0  0  0
  155.8434   46.5837  144.8272 N   0  0  0  0  0  0  0  0  0  0  0  0
  154.7112   45.8580  144.8450 C   0  0  0  0  0  0  0  0  0  0  0  0
  153.6454   45.5108  143.8757 C   0  0  0  0  0  0  0  0  0  0  0  0
  153.6912   45.9494  142.7012 O   0  0  0  0  0  0  0  0  0  0  0  0
  152.6431   44.7223  144.3002 N   0  0  0  0  0  0  0  0  0  0  0  0
  152.5978   44.2554  145.5623 C   0  0  0  0  0  0  0  0  0  0  0  0
  151.5679   43.4620  145.9325 N   0  0  0  0  0  0  0  0  0  0  0  0
  153.5359   44.5335  146.4958 N   0  0  0  0  0  0  0  0  0  0  0  0
  154.5965   45.3157  146.2024 C   0  0  0  0  0  0  0  0  0  0  0  0
  160.3748   44.0606  149.1854 P   0  0  2  0  0  0  0  0  0  0  0  0
  159.7656   42.9798  148.3258 O   0  0  0  0  0  0  0  0  0  0  0  0
  161.1208   43.7150  150.4606 O   0  0  0  0  0  0  0  0  0  0  0  0
  161.3263   44.9559  148.2353 O   0  0  0  0  0  0  0  0  0  0  0  0
  162.2775   45.8492  148.8129 C   0  0  0  0  0  0  0  0  0  0  0  0
  162.7560   46.9316  147.8402 C   0  0  1  0  0  0  0  0  0  0  0  0
  163.6366   46.3467  146.8782 O   0  0  0  0  0  0  0  0  0  0  0  0
  161.6486   47.6329  147.0568 C   0  0  1  0  0  0  0  0  0  0  0  0
  161.2272   48.8442  147.6822 O   0  0  0  0  0  0  0  0  0  0  0  0
  162.3169   47.8982  145.7207 C   0  0  1  0  0  0  0  0  0  0  0  0
  163.0336   49.1357  145.7472 O   0  0  0  0  0  0  0  0  0  0  0  0
  163.3332   46.7882  145.5523 C   0  0  2  0  0  0  0  0  0  0  0  0
  162.7197   45.6635  144.8033 N   0  0  0  0  0  0  0  0  0  0  0  0
  163.1578   44.3889  144.8007 C   0  0  0  0  0  0  0  0  0  0  0  0
  162.3767   43.5854  144.0265 N   0  0  0  0  0  0  0  0  0  0  0  0
  161.4010   44.3541  143.5172 C   0  0  0  0  0  0  0  0  0  0  0  0
  160.2433   44.1531  142.6090 C   0  0  0  0  0  0  0  0  0  0  0  0
  159.9575   43.0363  142.1261 O   0  0  0  0  0  0  0  0  0  0  0  0
  159.4842   45.2154  142.3353 N   0  0  0  0  0  0  0  0  0  0  0  0
  159.7453   46.4338  142.8334 C   0  0  0  0  0  0  0  0  0  0  0  0
  158.9240   47.4342  142.4811 N   0  0  0  0  0  0  0  0  0  0  0  0
  160.7847   46.6985  143.6592 N   0  0  0  0  0  0  0  0  0  0  0  0
  161.6348   45.7186  144.0310 C   0  0  0  0  0  0  0  0  0  0  0  0
  1  3  2  6  0  0  0
  1 32  1  0  0  0  0
  1  2  1  0  0  0  0
  1  4  1  0  0  0  0
  4  5  1  0  0  0  0
  6  5  1  6  0  0  0
  7  6  1  0  0  0  0
  8  6  1  0  0  0  0
  8 10  1  0  0  0  0
  8  9  1  1  0  0  0
 10 11  1  1  0  0  0
 12 13  1  6  0  0  0
 12  7  1  0  0  0  0
 12 10  1  0  0  0  0
 14 13  1  0  0  0  0
 15 16  1  0  0  0  0
 15 14  2  0  0  0  0
 16 23  2  0  0  0  0
 17 16  1  0  0  0  0
 17 19  1  0  0  0  0
 18 17  2  0  0  0  0
 19 20  2  0  0  0  0
 20 22  1  0  0  0  0
 20 21  1  0  0  0  0
 23 13  1  0  0  0  0
 23 22  1  0  0  0  0
 24 25  2  6  0  0  0
 24  9  1  0  0  0  0
 24 26  1  0  0  0  0
 27 28  1  0  0  0  0
 27 24  1  0  0  0  0
 29 30  1  6  0  0  0
 29 28  1  0  0  0  0
 31 32  1  1  0  0  0
 31 29  1  0  0  0  0
 33 34  1  1  0  0  0
 33 35  1  0  0  0  0
 33 31  1  0  0  0  0
 35 36  1  6  0  0  0
 35 30  1  0  0  0  0
 36 37  1  0  0  0  0
 38 37  2  0  0  0  0
 39 38  1  0  0  0  0
 40 41  2  0  0  0  0
 40 39  1  0  0  0  0
 42 40  1  0  0  0  0
 43 42  2  0  0  0  0
 43 45  1  0  0  0  0
 44 43  1  0  0  0  0
 45 46  1  0  0  0  0
 46 39  2  0  0  0  0
 46 36  1  0  0  0  0
M  END
>  <CHROM.1>
50.82512211,-44.69131725,158.92731534,46.03968468,146.42856310,0.13746817
0.17224323,1.42695980

>  <Name>
lig.pdb

>  <RI>
0

>  <Rbt.Current_Directory>
/home/itssahil/PROJECTS/Mol_Feturizer/New_Systems/rnas/4yb0

>  <Rbt.Executable>
rbdock ($Id: //depot/dev/client3/rdock/2013.1/src/exe/rbdock.cxx#4 $)

>  <Rbt.Library>
libRbt.so (2013.1, Build901 2013/11/27)

>  <Rbt.Parameter_File>
/export/apps/rDock/src/rDock_2013.1_src/data/scripts/dock_solv.prm

>  <Rbt.Receptor>
prm/pocket_docking_7.prm

>  <SCORE>
-23.3626

>  <SCORE.INTER>
-23.3821

>  <SCORE.INTER.CONST>
1

>  <SCORE.INTER.POLAR>
0

>  <SCORE.INTER.ROT>
2

>  <SCORE.INTER.SOLV>
15.702

>  <SCORE.INTER.VDW>
-25.7554

>  <SCORE.INTER.norm>
-0.508307

>  <SCORE.INTRA>
0.0194997

>  <SCORE.INTRA.DIHEDRAL>
-0.0039944

>  <SCORE.INTRA.DIHEDRAL.0>
4.74153

>  <SCORE.INTRA.POLAR>
0

>  <SCORE.INTRA.POLAR.0>
0

>  <SCORE.INTRA.REPUL>
0

>  <SCORE.INTRA.REPUL.0>
0

>  <SCORE.INTRA.SOLV>
0.252149

>  <SCORE.INTRA.SOLV.lig_0>
-60.4375

>  <SCORE.INTRA.VDW>
-0.104577

>  <SCORE.INTRA.VDW.0>
-1.83689

>  <SCORE.INTRA.norm>
0.000423907

>  <SCORE.RESTR>
0

>  <SCORE.RESTR.CAVITY>
0

>  <SCORE.RESTR.norm>
0

>  <SCORE.SYSTEM>
0

>  <SCORE.SYSTEM.CONST>
0

>  <SCORE.SYSTEM.DIHEDRAL>
0

>  <SCORE.SYSTEM.SOLV>
0

>  <SCORE.SYSTEM.norm>
0

>  <SCORE.heavy>
46

>  <SCORE.norm>
-0.507883

>  <RMSD>
4.452

$$$$
lig.pdb
 OpenBabel11021811523D
libRbt.so/2013.1/901 2013/11/27
 46 52  0  0  0  0  0  0  0  0999 V2000
  157.5892   41.9231  148.1264 P   0  0  2  0  0  0  0  0  0  0  0  0
  157.5868   40.8964  149.2379 O   0  0  0  0  0  0  0  0  0  0  0  0
  156.7768   41.5959  146.9000 O   0  0  0  0  0  0  0  0  0  0  0  0
  159.0869   42.2762  147.6601 O   0  0  0  0  0  0  0  0  0  0  0  0
  160.2199   41.8204  148.3878 C   0  0  0  0  0  0  0  0  0  0  0  0
  161.4537   42.6054  147.9742 C   0  0  1  0  0  0  0  0  0  0  0  0
  162.2281   41.7845  147.1114 O   0  0  0  0  0  0  0  0  0  0  0  0
  161.1886   43.8960  147.2095 C   0  0  1  0  0  0  0  0  0  0  0  0
  161.3758   45.0091  148.0712 O   0  0  0  0  0  0  0  0  0  0  0  0
  162.2840   43.9195  146.1673 C   0  0  1  0  0  0  0  0  0  0  0  0
  163.4298   44.5944  146.6905 O   0  0  0  0  0  0  0  0  0  0  0  0
  162.6792   42.4858  145.9627 C   0  0  2  0  0  0  0  0  0  0  0  0
  161.9738   41.9514  144.7737 N   0  0  0  0  0  0  0  0  0  0  0  0
  161.4276   40.7272  144.6714 C   0  0  0  0  0  0  0  0  0  0  0  0
  160.8743   40.5522  143.4474 N   0  0  0  0  0  0  0  0  0  0  0  0
  161.0630   41.6803  142.7398 C   0  0  0  0  0  0  0  0  0  0  0  0
  160.7249   42.1614  141.3796 C   0  0  0  0  0  0  0  0  0  0  0  0
  160.1082   41.4167  140.5803 O   0  0  0  0  0  0  0  0  0  0  0  0
  161.1022   43.4065  141.0421 N   0  0  0  0  0  0  0  0  0  0  0  0
  161.7653   44.2014  141.9032 C   0  0  0  0  0  0  0  0  0  0  0  0
  162.1156   45.4467  141.5110 N   0  0  0  0  0  0  0  0  0  0  0  0
  162.1048   43.8254  143.1570 N   0  0  0  0  0  0  0  0  0  0  0  0
  161.7875   42.5988  143.6237 C   0  0  0  0  0  0  0  0  0  0  0  0
  160.9218   46.5201  147.6878 P   0  0  2  0  0  0  0  0  0  0  0  0
  161.4335   46.8564  146.3083 O   0  0  0  0  0  0  0  0  0  0  0  0
  161.2796   47.3822  148.8839 O   0  0  0  0  0  0  0  0  0  0  0  0
  159.3153   46.3840  147.5883 O   0  0  0  0  0  0  0  0  0  0  0  0
  158.5219   46.3868  148.7745 C   0  0  0  0  0  0  0  0  0  0  0  0
  157.1229   45.7989  148.5655 C   0  0  1  0  0  0  0  0  0  0  0  0
  156.3255   46.7274  147.8274 O   0  0  0  0  0  0  0  0  0  0  0  0
  157.0839   44.4774  147.8011 C   0  0  1  0  0  0  0  0  0  0  0  0
  157.0700   43.3481  148.6732 O   0  0  0  0  0  0  0  0  0  0  0  0
  155.7886   44.5947  147.0197 C   0  0  1  0  0  0  0  0  0  0  0  0
  154.6807   44.1359  147.7995 O   0  0  0  0  0  0  0  0  0  0  0  0
  155.5947   46.0780  146.7836 C   0  0  2  0  0  0  0  0  0  0  0  0
  156.1909   46.4545  145.4779 N   0  0  0  0  0  0  0  0  0  0  0  0
  155.8897   45.8998  144.2870 C   0  0  0  0  0  0  0  0  0  0  0  0
  156.5947   46.4682  143.2696 N   0  0  0  0  0  0  0  0  0  0  0  0
  157.3698   47.4219  143.8101 C   0  0  0  0  0  0  0  0  0  0  0  0
  158.3718   48.3978  143.3109 C   0  0  0  0  0  0  0  0  0  0  0  0
  158.6663   48.4947  142.1001 O   0  0  0  0  0  0  0  0  0  0  0  0
  158.9446   49.2041  144.2062 N   0  0  0  0  0  0  0  0  0  0  0  0
  158.6581   49.1437  145.5158 C   0  0  0  0  0  0  0  0  0  0  0  0
  159.3039   49.9927  146.3291 N   0  0  0  0  0  0  0  0  0  0  0  0
  157.7646   48.2773  146.0481 N   0  0  0  0  0  0  0  0  0  0  0  0
  157.0998   47.4050  145.2617 C   0  0  0  0  0  0  0  0  0  0  0  0
  1  3  2  6  0  0  0
  1 32  1  0  0  0  0
  1  2  1  0  0  0  0
  1  4  1  0  0  0  0
  4  5  1  0  0  0  0
  6  5  1  6  0  0  0
  7  6  1  0  0  0  0
  8  6  1  0  0  0  0
  8 10  1  0  0  0  0
  8  9  1  1  0  0  0
 10 11  1  1  0  0  0
 12 13  1  6  0  0  0
 12  7  1  0  0  0  0
 12 10  1  0  0  0  0
 14 13  1  0  0  0  0
 15 16  1  0  0  0  0
 15 14  2  0  0  0  0
 16 23  2  0  0  0  0
 17 16  1  0  0  0  0
 17 19  1  0  0  0  0
 18 17  2  0  0  0  0
 19 20  2  0  0  0  0
 20 22  1  0  0  0  0
 20 21  1  0  0  0  0
 23 13  1  0  0  0  0
 23 22  1  0  0  0  0
 24 25  2  6  0  0  0
 24  9  1  0  0  0  0
 24 26  1  0  0  0  0
 27 28  1  0  0  0  0
 27 24  1  0  0  0  0
 29 30  1  6  0  0  0
 29 28  1  0  0  0  0
 31 32  1  1  0  0  0
 31 29  1  0  0  0  0
 33 34  1  1  0  0  0
 33 35  1  0  0  0  0
 33 31  1  0  0  0  0
 35 36  1  6  0  0  0
 35 30  1  0  0  0  0
 36 37  1  0  0  0  0
 38 37  2  0  0  0  0
 39 38  1  0  0  0  0
 40 41  2  0  0  0  0
 40 39  1  0  0  0  0
 42 40  1  0  0  0  0
 43 42  2  0  0  0  0
 43 45  1  0  0  0  0
 44 43  1  0  0  0  0
 45 46  1  0  0  0  0
 46 39  2  0  0  0  0
 46 36  1  0  0  0  0
M  END
>  <CHROM.1>
-23.93886063,170.38610504,159.35640045,44.66408075,145.88413468,2.86092428
0.87845682,-0.66527849

>  <Name>
lig.pdb

>  <RI>
0

>  <Rbt.Current_Directory>
/home/itssahil/PROJECTS/Mol_Feturizer/New_Systems/rnas/4yb0

>  <Rbt.Executable>
rbdock ($Id: //depot/dev/client3/rdock/2013.1/src/exe/rbdock.cxx#4 $)

>  <Rbt.Library>
libRbt.so (2013.1, Build901 2013/11/27)

>  <Rbt.Parameter_File>
/export/apps/rDock/src/rDock_2013.1_src/data/scripts/dock_solv.prm

>  <Rbt.Receptor>
prm/pocket_docking_8.prm

>  <SCORE>
-23.1965

>  <SCORE.INTER>
-23.1822

>  <SCORE.INTER.CONST>
1

>  <SCORE.INTER.POLAR>
0

>  <SCORE.INTER.ROT>
2

>  <SCORE.INTER.SOLV>
20.7999

>  <SCORE.INTER.VDW>
-27.3214

>  <SCORE.INTER.norm>
-0.50396

>  <SCORE.INTRA>
-0.0143343

>  <SCORE.INTRA.DIHEDRAL>
0.132033

>  <SCORE.INTRA.DIHEDRAL.0>
4.74153

>  <SCORE.INTRA.POLAR>
0

>  <SCORE.INTRA.POLAR.0>
0

>  <SCORE.INTRA.REPUL>
0.00250884

>  <SCORE.INTRA.REPUL.0>
0

>  <SCORE.INTRA.SOLV>
1.77891

>  <SCORE.INTRA.SOLV.lig_0>
-60.4375

>  <SCORE.INTRA.VDW>
-0.98235

>  <SCORE.INTRA.VDW.0>
-1.83689

>  <SCORE.INTRA.norm>
-0.000311616

>  <SCORE.RESTR>
0

>  <SCORE.RESTR.CAVITY>
0

>  <SCORE.RESTR.norm>
0

>  <SCORE.SYSTEM>
0

>  <SCORE.SYSTEM.CONST>
0

>  <SCORE.SYSTEM.DIHEDRAL>
0

>  <SCORE.SYSTEM.SOLV>
0

>  <SCORE.SYSTEM.norm>
0

>  <SCORE.heavy>
46

>  <SCORE.norm>
-0.504272

>  <RMSD>
4.479

$$$$
lig.pdb
 OpenBabel11021811523D
libRbt.so/2013.1/901 2013/11/27
 46 52  0  0  0  0  0  0  0  0999 V2000
  160.8218   46.8612  147.7938 P   0  0  2  0  0  0  0  0  0  0  0  0
  160.9613   47.9427  148.8428 O   0  0  0  0  0  0  0  0  0  0  0  0
  161.4026   47.1563  146.4349 O   0  0  0  0  0  0  0  0  0  0  0  0
  159.2855   46.4270  147.6027 O   0  0  0  0  0  0  0  0  0  0  0  0
  158.2695   46.8755  148.4901 C   0  0  0  0  0  0  0  0  0  0  0  0
  157.0219   46.0233  148.3253 C   0  0  1  0  0  0  0  0  0  0  0  0
  156.0773   46.7684  147.5701 O   0  0  0  0  0  0  0  0  0  0  0  0
  157.2160   44.7064  147.5845 C   0  0  1  0  0  0  0  0  0  0  0  0
  157.2270   43.6325  148.5135 O   0  0  0  0  0  0  0  0  0  0  0  0
  155.9646   44.5873  146.7438 C   0  0  1  0  0  0  0  0  0  0  0  0
  154.9547   43.8964  147.4819 O   0  0  0  0  0  0  0  0  0  0  0  0
  155.4745   45.9923  146.5458 C   0  0  2  0  0  0  0  0  0  0  0  0
  155.9464   46.4920  145.2327 N   0  0  0  0  0  0  0  0  0  0  0  0
  155.5880   46.0019  144.0332 C   0  0  0  0  0  0  0  0  0  0  0  0
  156.2118   46.6751  143.0368 N   0  0  0  0  0  0  0  0  0  0  0  0
  156.9900   47.6191  143.5955 C   0  0  0  0  0  0  0  0  0  0  0  0
  157.9111   48.6738  143.1104 C   0  0  0  0  0  0  0  0  0  0  0  0
  158.1076   48.8254  141.8807 O   0  0  0  0  0  0  0  0  0  0  0  0
  158.5192   49.4464  144.0268 N   0  0  0  0  0  0  0  0  0  0  0  0
  158.3061   49.2786  145.3457 C   0  0  0  0  0  0  0  0  0  0  0  0
  158.9415   50.0883  146.2220 N   0  0  0  0  0  0  0  0  0  0  0  0
  157.4800   48.3369  145.8551 N   0  0  0  0  0  0  0  0  0  0  0  0
  156.8069   47.4924  145.0447 C   0  0  0  0  0  0  0  0  0  0  0  0
  157.6808   42.1225  148.1260 P   0  0  2  0  0  0  0  0  0  0  0  0
  156.9628   41.6965  146.8685 O   0  0  0  0  0  0  0  0  0  0  0  0
  157.5677   41.3096  149.4020 O   0  0  0  0  0  0  0  0  0  0  0  0
  159.2402   42.3153  147.7512 O   0  0  0  0  0  0  0  0  0  0  0  0
  160.2192   42.4038  148.7857 C   0  0  0  0  0  0  0  0  0  0  0  0
  161.5350   43.0339  148.3182 C   0  0  1  0  0  0  0  0  0  0  0  0
  162.2408   42.1003  147.4979 O   0  0  0  0  0  0  0  0  0  0  0  0
  161.3845   44.3149  147.5008 C   0  0  1  0  0  0  0  0  0  0  0  0
  161.4907   45.4871  148.3075 O   0  0  0  0  0  0  0  0  0  0  0  0
  162.5356   44.2079  146.5182 C   0  0  1  0  0  0  0  0  0  0  0  0
  163.7352   44.7484  147.0791 O   0  0  0  0  0  0  0  0  0  0  0  0
  162.7565   42.7230  146.3183 C   0  0  2  0  0  0  0  0  0  0  0  0
  161.9695   42.2575  145.1496 N   0  0  0  0  0  0  0  0  0  0  0  0
  161.2432   41.1236  145.0921 C   0  0  0  0  0  0  0  0  0  0  0  0
  160.6230   40.9786  143.8881 N   0  0  0  0  0  0  0  0  0  0  0  0
  160.9478   42.0482  143.1446 C   0  0  0  0  0  0  0  0  0  0  0  0
  160.6503   42.5277  141.7709 C   0  0  0  0  0  0  0  0  0  0  0  0
  159.9071   41.8973  140.9883 O   0  0  0  0  0  0  0  0  0  0  0  0
  161.1896   43.6881  141.3938 N   0  0  0  0  0  0  0  0  0  0  0  0
  161.9887   44.4053  142.1987 C   0  0  0  0  0  0  0  0  0  0  0  0
  162.4881   45.5511  141.7118 N   0  0  0  0  0  0  0  0  0  0  0  0
  162.3134   44.0314  143.4585 N   0  0  0  0  0  0  0  0  0  0  0  0
  161.8344   42.8826  143.9803 C   0  0  0  0  0  0  0  0  0  0  0  0
  1  3  2  6  0  0  0
  1 32  1  0  0  0  0
  1  2  1  0  0  0  0
  1  4  1  0  0  0  0
  4  5  1  0  0  0  0
  6  5  1  6  0  0  0
  7  6  1  0  0  0  0
  8  6  1  0  0  0  0
  8 10  1  0  0  0  0
  8  9  1  1  0  0  0
 10 11  1  1  0  0  0
 12 13  1  6  0  0  0
 12  7  1  0  0  0  0
 12 10  1  0  0  0  0
 14 13  1  0  0  0  0
 15 16  1  0  0  0  0
 15 14  2  0  0  0  0
 16 23  2  0  0  0  0
 17 16  1  0  0  0  0
 17 19  1  0  0  0  0
 18 17  2  0  0  0  0
 19 20  2  0  0  0  0
 20 22  1  0  0  0  0
 20 21  1  0  0  0  0
 23 13  1  0  0  0  0
 23 22  1  0  0  0  0
 24 25  2  6  0  0  0
 24  9  1  0  0  0  0
 24 26  1  0  0  0  0
 27 28  1  0  0  0  0
 27 24  1  0  0  0  0
 29 30  1  6  0  0  0
 29 28  1  0  0  0  0
 31 32  1  1  0  0  0
 31 29  1  0  0  0  0
 33 34  1  1  0  0  0
 33 35  1  0  0  0  0
 33 31  1  0  0  0  0
 35 36  1  6  0  0  0
 35 30  1  0  0  0  0
 36 37  1  0  0  0  0
 38 37  2  0  0  0  0
 39 38  1  0  0  0  0
 40 41  2  0  0  0  0
 40 39  1  0  0  0  0
 42 40  1  0  0  0  0
 43 42  2  0  0  0  0
 43 45  1  0  0  0  0
 44 43  1  0  0  0  0
 45 46  1  0  0  0  0
 46 39  2  0  0  0  0
 46 36  1  0  0  0  0
M  END
>  <CHROM.1>
-179.95073628,-21.97012971,159.29869806,44.90546980,145.94621734,2.65399703
0.76677081,-0.85740875

>  <Name>
lig.pdb

>  <RI>
0

>  <Rbt.Current_Directory>
/home/itssahil/PROJECTS/Mol_Feturizer/New_Systems/rnas/4yb0

>  <Rbt.Executable>
rbdock ($Id: //depot/dev/client3/rdock/2013.1/src/exe/rbdock.cxx#4 $)

>  <Rbt.Library>
libRbt.so (2013.1, Build901 2013/11/27)

>  <Rbt.Parameter_File>
/export/apps/rDock/src/rDock_2013.1_src/data/scripts/dock_solv.prm

>  <Rbt.Receptor>
prm/pocket_docking_6.prm

>  <SCORE>
-22.3182

>  <SCORE.INTER>
-22.1043

>  <SCORE.INTER.CONST>
1

>  <SCORE.INTER.POLAR>
0

>  <SCORE.INTER.ROT>
2

>  <SCORE.INTER.SOLV>
18.8034

>  <SCORE.INTER.VDW>
-25.9373

>  <SCORE.INTER.norm>
-0.480528

>  <SCORE.INTRA>
-0.214174

>  <SCORE.INTRA.DIHEDRAL>
0.00399401

>  <SCORE.INTRA.DIHEDRAL.0>
4.74153

>  <SCORE.INTRA.POLAR>
0

>  <SCORE.INTRA.POLAR.0>
0

>  <SCORE.INTRA.REPUL>
0.00191098

>  <SCORE.INTRA.REPUL.0>
0

>  <SCORE.INTRA.SOLV>
1.64031

>  <SCORE.INTRA.SOLV.lig_0>
-60.4375

>  <SCORE.INTRA.VDW>
-1.04588

>  <SCORE.INTRA.VDW.0>
-1.83689

>  <SCORE.INTRA.norm>
-0.00465595

>  <SCORE.RESTR>
0.000223683

>  <SCORE.RESTR.CAVITY>
0.000223683

>  <SCORE.RESTR.norm>
4.86268e-06

>  <SCORE.SYSTEM>
0

>  <SCORE.SYSTEM.CONST>
0

>  <SCORE.SYSTEM.DIHEDRAL>
0

>  <SCORE.SYSTEM.SOLV>
0

>  <SCORE.SYSTEM.norm>
0

>  <SCORE.heavy>
46

>  <SCORE.norm>
-0.485179

>  <RMSD>
4.531

$$$$
lig.pdb
 OpenBabel11021811523D
libRbt.so/2013.1/901 2013/11/27
 46 52  0  0  0  0  0  0  0  0999 V2000
  157.5562   41.9736  148.0933 P   0  0  2  0  0  0  0  0  0  0  0  0
  157.5177   40.9414  149.1990 O   0  0  0  0  0  0  0  0  0  0  0  0
  156.7547   41.6692  146.8540 O   0  0  0  0  0  0  0  0  0  0  0  0
  159.0670   42.2991  147.6499 O   0  0  0  0  0  0  0  0  0  0  0  0
  160.1804   41.8168  148.3907 C   0  0  0  0  0  0  0  0  0  0  0  0
  161.4354   42.5791  147.9986 C   0  0  1  0  0  0  0  0  0  0  0  0
  162.2052   41.7474  147.1421 O   0  0  0  0  0  0  0  0  0  0  0  0
  161.2068   43.8788  147.2375 C   0  0  1  0  0  0  0  0  0  0  0  0
  161.4041   44.9834  148.1079 O   0  0  0  0  0  0  0  0  0  0  0  0
  162.3170   43.8858  146.2108 C   0  0  1  0  0  0  0  0  0  0  0  0
  163.4685   44.5348  146.7536 O   0  0  0  0  0  0  0  0  0  0  0  0
  162.6862   42.4455  146.0037 C   0  0  2  0  0  0  0  0  0  0  0  0
  161.9870   41.9316  144.8022 N   0  0  0  0  0  0  0  0  0  0  0  0
  161.4160   40.7200  144.6863 C   0  0  0  0  0  0  0  0  0  0  0  0
  160.8771   40.5623  143.4535 N   0  0  0  0  0  0  0  0  0  0  0  0
  161.1007   41.6890  142.7539 C   0  0  0  0  0  0  0  0  0  0  0  0
  160.7932   42.1832  141.3910 C   0  0  0  0  0  0  0  0  0  0  0  0
  160.1724   41.4554  140.5794 O   0  0  0  0  0  0  0  0  0  0  0  0
  161.2024   43.4212  141.0648 N   0  0  0  0  0  0  0  0  0  0  0  0
  161.8698   44.1978  141.9392 C   0  0  0  0  0  0  0  0  0  0  0  0
  162.2527   45.4369  141.5578 N   0  0  0  0  0  0  0  0  0  0  0  0
  162.1825   43.8092  143.1961 N   0  0  0  0  0  0  0  0  0  0  0  0
  161.8318   42.5878  143.6524 C   0  0  0  0  0  0  0  0  0  0  0  0
  160.9858   46.5051  147.7266 P   0  0  2  0  0  0  0  0  0  0  0  0
  161.5234   46.8383  146.3562 O   0  0  0  0  0  0  0  0  0  0  0  0
  161.3440   47.3536  148.9323 O   0  0  0  0  0  0  0  0  0  0  0  0
  159.3784   46.4018  147.6040 O   0  0  0  0  0  0  0  0  0  0  0  0
  158.5687   46.4142  148.7791 C   0  0  0  0  0  0  0  0  0  0  0  0
  157.1613   45.8556  148.5474 C   0  0  1  0  0  0  0  0  0  0  0  0
  156.3930   46.8038  147.8034 O   0  0  0  0  0  0  0  0  0  0  0  0
  157.1066   44.5393  147.7752 C   0  0  1  0  0  0  0  0  0  0  0  0
  157.0579   43.4058  148.6407 O   0  0  0  0  0  0  0  0  0  0  0  0
  155.8250   44.6866  146.9766 C   0  0  1  0  0  0  0  0  0  0  0  0
  154.6974   44.2460  147.7383 O   0  0  0  0  0  0  0  0  0  0  0  0
  155.6641   46.1747  146.7460 C   0  0  2  0  0  0  0  0  0  0  0  0
  156.2859   46.5460  145.4508 N   0  0  0  0  0  0  0  0  0  0  0  0
  156.0876   45.9180  144.2748 C   0  0  0  0  0  0  0  0  0  0  0  0
  156.7884   46.5018  143.2632 N   0  0  0  0  0  0  0  0  0  0  0  0
  157.4547   47.5405  143.7918 C   0  0  0  0  0  0  0  0  0  0  0  0
  158.3929   48.5773  143.2914 C   0  0  0  0  0  0  0  0  0  0  0  0
  158.7336   48.6483  142.0909 O   0  0  0  0  0  0  0  0  0  0  0  0
  158.8540   49.4668  144.1722 N   0  0  0  0  0  0  0  0  0  0  0  0
  158.5136   49.4370  145.4700 C   0  0  0  0  0  0  0  0  0  0  0  0
  159.0476   50.3718  146.2702 N   0  0  0  0  0  0  0  0  0  0  0  0
  157.6727   48.5199  146.0030 N   0  0  0  0  0  0  0  0  0  0  0  0
  157.1206   47.5613  145.2300 C   0  0  0  0  0  0  0  0  0  0  0  0
  1  3  2  6  0  0  0
  1 32  1  0  0  0  0
  1  2  1  0  0  0  0
  1  4  1  0  0  0  0
  4  5  1  0  0  0  0
  6  5  1  6  0  0  0
  7  6  1  0  0  0  0
  8  6  1  0  0  0  0
  8 10  1  0  0  0  0
  8  9  1  1  0  0  0
 10 11  1  1  0  0  0
 12 13  1  6  0  0  0
 12  7  1  0  0  0  0
 12 10  1  0  0  0  0
 14 13  1  0  0  0  0
 15 16  1  0  0  0  0
 15 14  2  0  0  0  0
 16 23  2  0  0  0  0
 17 16  1  0  0  0  0
 17 19  1  0  0  0  0
 18 17  2  0  0  0  0
 19 20  2  0  0  0  0
 20 22  1  0  0  0  0
 20 21  1  0  0  0  0
 23 13  1  0  0  0  0
 23 22  1  0  0  0  0
 24 25  2  6  0  0  0
 24  9  1  0  0  0  0
 24 26  1  0  0  0  0
 27 28  1  0  0  0  0
 27 24  1  0  0  0  0
 29 30  1  6  0  0  0
 29 28  1  0  0  0  0
 31 32  1  1  0  0  0
 31 29  1  0  0  0  0
 33 34  1  1  0  0  0
 33 35  1  0  0  0  0
 33 31  1  0  0  0  0
 35 36  1  6  0  0  0
 35 30  1  0  0  0  0
 36 37  1  0  0  0  0
 38 37  2  0  0  0  0
 39 38  1  0  0  0  0
 40 41  2  0  0  0  0
 40 39  1  0  0  0  0
 42 40  1  0  0  0  0
 43 42  2  0  0  0  0
 43 45  1  0  0  0  0
 44 43  1  0  0  0  0
 45 46  1  0  0  0  0
 46 39  2  0  0  0  0
 46 36  1  0  0  0  0
M  END
>  <CHROM.1>
-23.81761590,163.50117369,159.38172321,44.71389400,145.88427291,0.38695387
-0.87994498,2.48744670

>  <Name>
lig.pdb

>  <RI>
0

>  <Rbt.Current_Directory>
/home/itssahil/PROJECTS/Mol_Feturizer/New_Systems/rnas/4yb0

>  <Rbt.Executable>
rbdock ($Id: //depot/dev/client3/rdock/2013.1/src/exe/rbdock.cxx#4 $)

>  <Rbt.Library>
libRbt.so (2013.1, Build901 2013/11/27)

>  <Rbt.Parameter_File>
/export/apps/rDock/src/rDock_2013.1_src/data/scripts/dock_solv.prm

>  <Rbt.Receptor>
prm/pocket_docking_6.prm

>  <SCORE>
-23.2175

>  <SCORE.INTER>
-23.1724

>  <SCORE.INTER.CONST>
1

>  <SCORE.INTER.POLAR>
0

>  <SCORE.INTER.ROT>
2

>  <SCORE.INTER.SOLV>
20.7382

>  <SCORE.INTER.VDW>
-27.2944

>  <SCORE.INTER.norm>
-0.503749

>  <SCORE.INTRA>
-0.045031

>  <SCORE.INTRA.DIHEDRAL>
0.148289

>  <SCORE.INTRA.DIHEDRAL.0>
4.74153

>  <SCORE.INTRA.POLAR>
0

>  <SCORE.INTRA.POLAR.0>
0

>  <SCORE.INTRA.REPUL>
0.00220406

>  <SCORE.INTRA.REPUL.0>
0

>  <SCORE.INTRA.SOLV>
0.60934

>  <SCORE.INTRA.SOLV.lig_0>
-60.4375

>  <SCORE.INTRA.VDW>
-0.434866

>  <SCORE.INTRA.VDW.0>
-1.83689

>  <SCORE.INTRA.norm>
-0.000978936

>  <SCORE.RESTR>
0

>  <SCORE.RESTR.CAVITY>
0

>  <SCORE.RESTR.norm>
0

>  <SCORE.SYSTEM>
0

>  <SCORE.SYSTEM.CONST>
0

>  <SCORE.SYSTEM.DIHEDRAL>
0

>  <SCORE.SYSTEM.SOLV>
0

>  <SCORE.SYSTEM.norm>
0

>  <SCORE.heavy>
46

>  <SCORE.norm>
-0.504728

>  <RMSD>
4.532

$$$$
lig.pdb
 OpenBabel11021811523D
libRbt.so/2013.1/901 2013/11/27
 46 52  0  0  0  0  0  0  0  0999 V2000
  158.5603   42.2583  147.5147 P   0  0  2  0  0  0  0  0  0  0  0  0
  158.7177   40.8574  148.0645 O   0  0  0  0  0  0  0  0  0  0  0  0
  157.7001   42.4116  146.2868 O   0  0  0  0  0  0  0  0  0  0  0  0
  159.9889   42.9335  147.2176 O   0  0  0  0  0  0  0  0  0  0  0  0
  161.2017   42.3289  147.6475 C   0  0  0  0  0  0  0  0  0  0  0  0
  162.3348   43.3402  147.5924 C   0  0  1  0  0  0  0  0  0  0  0  0
  163.1179   43.0605  146.4407 O   0  0  0  0  0  0  0  0  0  0  0  0
  161.9117   44.7991  147.4757 C   0  0  1  0  0  0  0  0  0  0  0  0
  162.0597   45.4417  148.7334 O   0  0  0  0  0  0  0  0  0  0  0  0
  162.9307   45.3865  146.5253 C   0  0  1  0  0  0  0  0  0  0  0  0
  164.0468   45.8841  147.2661 O   0  0  0  0  0  0  0  0  0  0  0  0
  163.4318   44.2333  145.7053 C   0  0  2  0  0  0  0  0  0  0  0  0
  162.6981   44.1961  144.4181 N   0  0  0  0  0  0  0  0  0  0  0  0
  162.9612   44.9608  143.3440 C   0  0  0  0  0  0  0  0  0  0  0  0
  162.0945   44.6871  142.3395 N   0  0  0  0  0  0  0  0  0  0  0  0
  161.2523   43.7289  142.7654 C   0  0  0  0  0  0  0  0  0  0  0  0
  160.1028   42.9837  142.2003 C   0  0  0  0  0  0  0  0  0  0  0  0
  159.7096   43.2181  141.0322 O   0  0  0  0  0  0  0  0  0  0  0  0
  159.5070   42.0639  142.9784 N   0  0  0  0  0  0  0  0  0  0  0  0
  159.9319   41.8171  144.2320 C   0  0  0  0  0  0  0  0  0  0  0  0
  159.2974   40.8770  144.9675 N   0  0  0  0  0  0  0  0  0  0  0  0
  160.9728   42.4601  144.8082 N   0  0  0  0  0  0  0  0  0  0  0  0
  161.6594   43.4095  144.1373 C   0  0  0  0  0  0  0  0  0  0  0  0
  161.4551   46.9127  149.0600 P   0  0  2  0  0  0  0  0  0  0  0  0
  161.8452   47.8651  147.9560 O   0  0  0  0  0  0  0  0  0  0  0  0
  161.8160   47.2036  150.5047 O   0  0  0  0  0  0  0  0  0  0  0  0
  159.8629   46.6655  148.9459 O   0  0  0  0  0  0  0  0  0  0  0  0
  159.1514   46.0708  150.0306 C   0  0  0  0  0  0  0  0  0  0  0  0
  157.7966   45.4884  149.6159 C   0  0  1  0  0  0  0  0  0  0  0  0
  156.8768   46.5558  149.3762 O   0  0  0  0  0  0  0  0  0  0  0  0
  157.8200   44.6327  148.3513 C   0  0  1  0  0  0  0  0  0  0  0  0
  157.9589   43.2425  148.6412 O   0  0  0  0  0  0  0  0  0  0  0  0
  156.4711   44.9405  147.7285 C   0  0  1  0  0  0  0  0  0  0  0  0
  155.4595   44.0758  148.2527 O   0  0  0  0  0  0  0  0  0  0  0  0
  156.1370   46.3502  148.1697 C   0  0  2  0  0  0  0  0  0  0  0  0
  156.6125   47.3155  147.1478 N   0  0  0  0  0  0  0  0  0  0  0  0
  157.6147   48.2019  147.3098 C   0  0  0  0  0  0  0  0  0  0  0  0
  157.8243   48.9420  146.1856 N   0  0  0  0  0  0  0  0  0  0  0  0
  156.9410   48.5227  145.2657 C   0  0  0  0  0  0  0  0  0  0  0  0
  156.6022   48.8812  143.8649 C   0  0  0  0  0  0  0  0  0  0  0  0
  157.2182   49.7663  143.2329 O   0  0  0  0  0  0  0  0  0  0  0  0
  155.6167   48.2011  143.2767 N   0  0  0  0  0  0  0  0  0  0  0  0
  154.9295   47.2380  143.9101 C   0  0  0  0  0  0  0  0  0  0  0  0
  153.9489   46.6282  143.2275 N   0  0  0  0  0  0  0  0  0  0  0  0
  155.1724   46.8607  145.1871 N   0  0  0  0  0  0  0  0  0  0  0  0
  156.1472   47.4551  145.9066 C   0  0  0  0  0  0  0  0  0  0  0  0
  1  3  2  6  0  0  0
  1 32  1  0  0  0  0
  1  2  1  0  0  0  0
  1  4  1  0  0  0  0
  4  5  1  0  0  0  0
  6  5  1  6  0  0  0
  7  6  1  0  0  0  0
  8  6  1  0  0  0  0
  8 10  1  0  0  0  0
  8  9  1  1  0  0  0
 10 11  1  1  0  0  0
 12 13  1  6  0  0  0
 12  7  1  0  0  0  0
 12 10  1  0  0  0  0
 14 13  1  0  0  0  0
 15 16  1  0  0  0  0
 15 14  2  0  0  0  0
 16 23  2  0  0  0  0
 17 16  1  0  0  0  0
 17 19  1  0  0  0  0
 18 17  2  0  0  0  0
 19 20  2  0  0  0  0
 20 22  1  0  0  0  0
 20 21  1  0  0  0  0
 23 13  1  0  0  0  0
 23 22  1  0  0  0  0
 24 25  2  6  0  0  0
 24  9  1  0  0  0  0
 24 26  1  0  0  0  0
 27 28  1  0  0  0  0
 27 24  1  0  0  0  0
 29 30  1  6  0  0  0
 29 28  1  0  0  0  0
 31 32  1  1  0  0  0
 31 29  1  0  0  0  0
 33 34  1  1  0  0  0
 33 35  1  0  0  0  0
 33 31  1  0  0  0  0
 35 36  1  6  0  0  0
 35 30  1  0  0  0  0
 36 37  1  0  0  0  0
 38 37  2  0  0  0  0
 39 38  1  0  0  0  0
 40 41  2  0  0  0  0
 40 39  1  0  0  0  0
 42 40  1  0  0  0  0
 43 42  2  0  0  0  0
 43 45  1  0  0  0  0
 44 43  1  0  0  0  0
 45 46  1  0  0  0  0
 46 39  2  0  0  0  0
 46 36  1  0  0  0  0
M  END
>  <CHROM.1>
-164.15749318,2.59029935,159.35733229,45.07187011,146.37779320,-0.20307064
-0.55437844,1.16206015

>  <Name>
lig.pdb

>  <RI>
0

>  <Rbt.Current_Directory>
/home/itssahil/PROJECTS/Mol_Feturizer/New_Systems/rnas/4yb0

>  <Rbt.Executable>
rbdock ($Id: //depot/dev/client3/rdock/2013.1/src/exe/rbdock.cxx#4 $)

>  <Rbt.Library>
libRbt.so (2013.1, Build901 2013/11/27)

>  <Rbt.Parameter_File>
/export/apps/rDock/src/rDock_2013.1_src/data/scripts/dock_solv.prm

>  <Rbt.Receptor>
prm/pocket_docking_6.prm

>  <SCORE>
-10.4725

>  <SCORE.INTER>
-11.4946

>  <SCORE.INTER.CONST>
1

>  <SCORE.INTER.POLAR>
0

>  <SCORE.INTER.ROT>
2

>  <SCORE.INTER.SOLV>
19.3261

>  <SCORE.INTER.VDW>
-19.0384

>  <SCORE.INTER.norm>
-0.249882

>  <SCORE.INTRA>
0.914953

>  <SCORE.INTRA.DIHEDRAL>
0.0994396

>  <SCORE.INTRA.DIHEDRAL.0>
4.74153

>  <SCORE.INTRA.POLAR>
0

>  <SCORE.INTRA.POLAR.0>
0

>  <SCORE.INTRA.REPUL>
0

>  <SCORE.INTRA.REPUL.0>
0

>  <SCORE.INTRA.SOLV>
3.95213

>  <SCORE.INTRA.SOLV.lig_0>
-60.4375

>  <SCORE.INTRA.VDW>
-1.11083

>  <SCORE.INTRA.VDW.0>
-1.83689

>  <SCORE.INTRA.norm>
0.0198903

>  <SCORE.RESTR>
0.107136

>  <SCORE.RESTR.CAVITY>
0.107136

>  <SCORE.RESTR.norm>
0.00232904

>  <SCORE.SYSTEM>
0

>  <SCORE.SYSTEM.CONST>
0

>  <SCORE.SYSTEM.DIHEDRAL>
0

>  <SCORE.SYSTEM.SOLV>
0

>  <SCORE.SYSTEM.norm>
0

>  <SCORE.heavy>
46

>  <SCORE.norm>
-0.227663

>  <RMSD>
4.553

$$$$
lig.pdb
 OpenBabel11021811523D
libRbt.so/2013.1/901 2013/11/27
 46 52  0  0  0  0  0  0  0  0999 V2000
  160.8023   46.8885  147.8444 P   0  0  2  0  0  0  0  0  0  0  0  0
  160.9244   47.9553  148.9105 O   0  0  0  0  0  0  0  0  0  0  0  0
  161.3935   47.2078  146.4955 O   0  0  0  0  0  0  0  0  0  0  0  0
  159.2709   46.4467  147.6324 O   0  0  0  0  0  0  0  0  0  0  0  0
  158.2435   46.8749  148.5168 C   0  0  0  0  0  0  0  0  0  0  0  0
  157.0036   46.0166  148.3277 C   0  0  1  0  0  0  0  0  0  0  0  0
  156.0608   46.7663  147.5747 O   0  0  0  0  0  0  0  0  0  0  0  0
  157.2138   44.7122  147.5692 C   0  0  1  0  0  0  0  0  0  0  0  0
  157.2237   43.6247  148.4823 O   0  0  0  0  0  0  0  0  0  0  0  0
  155.9712   44.5971  146.7151 C   0  0  1  0  0  0  0  0  0  0  0  0
  154.9594   43.8883  147.4333 O   0  0  0  0  0  0  0  0  0  0  0  0
  155.4730   46.0015  146.5335 C   0  0  2  0  0  0  0  0  0  0  0  0
  155.9536   46.5239  145.2324 N   0  0  0  0  0  0  0  0  0  0  0  0
  155.6978   45.9832  144.0284 C   0  0  0  0  0  0  0  0  0  0  0  0
  156.2987   46.6978  143.0468 N   0  0  0  0  0  0  0  0  0  0  0  0
  156.9573   47.7209  143.6199 C   0  0  0  0  0  0  0  0  0  0  0  0
  157.7943   48.8517  143.1545 C   0  0  0  0  0  0  0  0  0  0  0  0
  158.0305   49.0025  141.9317 O   0  0  0  0  0  0  0  0  0  0  0  0
  158.2841   49.6933  144.0810 N   0  0  0  0  0  0  0  0  0  0  0  0
  158.0290   49.5261  145.3924 C   0  0  0  0  0  0  0  0  0  0  0  0
  158.5441   50.4067  146.2793 N   0  0  0  0  0  0  0  0  0  0  0  0
  157.2745   48.5173  145.8841 N   0  0  0  0  0  0  0  0  0  0  0  0
  156.7222   47.5995  145.0621 C   0  0  0  0  0  0  0  0  0  0  0  0
  157.6917   42.1239  148.0766 P   0  0  2  0  0  0  0  0  0  0  0  0
  156.9885   41.7117  146.8063 O   0  0  0  0  0  0  0  0  0  0  0  0
  157.5725   41.2913  149.3394 O   0  0  0  0  0  0  0  0  0  0  0  0
  159.2532   42.3329  147.7195 O   0  0  0  0  0  0  0  0  0  0  0  0
  160.2219   42.4128  148.7643 C   0  0  0  0  0  0  0  0  0  0  0  0
  161.5375   43.0588  148.3186 C   0  0  1  0  0  0  0  0  0  0  0  0
  162.2574   42.1424  147.4911 O   0  0  0  0  0  0  0  0  0  0  0  0
  161.3855   44.3509  147.5189 C   0  0  1  0  0  0  0  0  0  0  0  0
  161.4760   45.5116  148.3439 O   0  0  0  0  0  0  0  0  0  0  0  0
  162.5465   44.2664  146.5457 C   0  0  1  0  0  0  0  0  0  0  0  0
  163.7370   44.8068  147.1258 O   0  0  0  0  0  0  0  0  0  0  0  0
  162.7797   42.7863  146.3258 C   0  0  2  0  0  0  0  0  0  0  0  0
  162.0068   42.3328  145.1430 N   0  0  0  0  0  0  0  0  0  0  0  0
  161.2779   41.2017  145.0666 C   0  0  0  0  0  0  0  0  0  0  0  0
  160.6734   41.0685  143.8533 N   0  0  0  0  0  0  0  0  0  0  0  0
  161.0113   42.1431  143.1230 C   0  0  0  0  0  0  0  0  0  0  0  0
  160.7335   42.6347  141.7494 C   0  0  0  0  0  0  0  0  0  0  0  0
  159.9989   42.0131  140.9519 O   0  0  0  0  0  0  0  0  0  0  0  0
  161.2814   43.7965  141.3890 N   0  0  0  0  0  0  0  0  0  0  0  0
  162.0720   44.5045  142.2103 C   0  0  0  0  0  0  0  0  0  0  0  0
  162.5813   45.6526  141.7395 N   0  0  0  0  0  0  0  0  0  0  0  0
  162.3787   44.1193  143.4712 N   0  0  0  0  0  0  0  0  0  0  0  0
  161.8892   42.9679  143.9771 C   0  0  0  0  0  0  0  0  0  0  0  0
  1  3  2  6  0  0  0
  1 32  1  0  0  0  0
  1  2  1  0  0  0  0
  1  4  1  0  0  0  0
  4  5  1  0  0  0  0
  6  5  1  6  0  0  0
  7  6  1  0  0  0  0
  8  6  1  0  0  0  0
  8 10  1  0  0  0  0
  8  9  1  1  0  0  0
 10 11  1  1  0  0  0
 12 13  1  6  0  0  0
 12  7  1  0  0  0  0
 12 10  1  0  0  0  0
 14 13  1  0  0  0  0
 15 16  1  0  0  0  0
 15 14  2  0  0  0  0
 16 23  2  0  0  0  0
 17 16  1  0  0  0  0
 17 19  1  0  0  0  0
 18 17  2  0  0  0  0
 19 20  2  0  0  0  0
 20 22  1  0  0  0  0
 20 21  1  0  0  0  0
 23 13  1  0  0  0  0
 23 22  1  0  0  0  0
 24 25  2  6  0  0  0
 24  9  1  0  0  0  0
 24 26  1  0  0  0  0
 27 28  1  0  0  0  0
 27 24  1  0  0  0  0
 29 30  1  6  0  0  0
 29 28  1  0  0  0  0
 31 32  1  1  0  0  0
 31 29  1  0  0  0  0
 33 34  1  1  0  0  0
 33 35  1  0  0  0  0
 33 31  1  0  0  0  0
 35 36  1  6  0  0  0
 35 30  1  0  0  0  0
 36 37  1  0  0  0  0
 38 37  2  0  0  0  0
 39 38  1  0  0  0  0
 40 41  2  0  0  0  0
 40 39  1  0  0  0  0
 42 40  1  0  0  0  0
 43 42  2  0  0  0  0
 43 45  1  0  0  0  0
 44 43  1  0  0  0  0
 45 46  1  0  0  0  0
 46 39  2  0  0  0  0
 46 36  1  0  0  0  0
M  END
>  <CHROM.1>
174.26203345,-21.23863311,159.28833664,44.96767341,145.95090330,2.63154420
0.76215361,-0.84609454

>  <Name>
lig.pdb

>  <RI>
0

>  <Rbt.Current_Directory>
/home/itssahil/PROJECTS/Mol_Feturizer/New_Systems/rnas/4yb0

>  <Rbt.Executable>
rbdock ($Id: //depot/dev/client3/rdock/2013.1/src/exe/rbdock.cxx#4 $)

>  <Rbt.Library>
libRbt.so (2013.1, Build901 2013/11/27)

>  <Rbt.Parameter_File>
/export/apps/rDock/src/rDock_2013.1_src/data/scripts/dock_solv.prm

>  <Rbt.Receptor>
prm/pocket_docking_6.prm

>  <SCORE>
-22.2142

>  <SCORE.INTER>
-21.936

>  <SCORE.INTER.CONST>
1

>  <SCORE.INTER.POLAR>
0

>  <SCORE.INTER.ROT>
2

>  <SCORE.INTER.SOLV>
18.7423

>  <SCORE.INTER.VDW>
-25.8048

>  <SCORE.INTER.norm>
-0.47687

>  <SCORE.INTRA>
-0.278223

>  <SCORE.INTRA.DIHEDRAL>
-0.00878843

>  <SCORE.INTRA.DIHEDRAL.0>
4.74153

>  <SCORE.INTRA.POLAR>
0

>  <SCORE.INTRA.POLAR.0>
0

>  <SCORE.INTRA.REPUL>
0.0007744

>  <SCORE.INTRA.REPUL.0>
0

>  <SCORE.INTRA.SOLV>
0.753517

>  <SCORE.INTRA.SOLV.lig_0>
-60.4375

>  <SCORE.INTRA.VDW>
-0.654459

>  <SCORE.INTRA.VDW.0>
-1.83689

>  <SCORE.INTRA.norm>
-0.00604833

>  <SCORE.RESTR>
0

>  <SCORE.RESTR.CAVITY>
0

>  <SCORE.RESTR.norm>
0

>  <SCORE.SYSTEM>
0

>  <SCORE.SYSTEM.CONST>
0

>  <SCORE.SYSTEM.DIHEDRAL>
0

>  <SCORE.SYSTEM.SOLV>
0

>  <SCORE.SYSTEM.norm>
0

>  <SCORE.heavy>
46

>  <SCORE.norm>
-0.482918

>  <RMSD>
4.558

$$$$
lig.pdb
 OpenBabel11021811523D
libRbt.so/2013.1/901 2013/11/27
 46 52  0  0  0  0  0  0  0  0999 V2000
  162.0233   46.8895  149.0280 P   0  0  2  0  0  0  0  0  0  0  0  0
  162.4370   47.9492  150.0257 O   0  0  0  0  0  0  0  0  0  0  0  0
  162.4306   47.1128  147.5944 O   0  0  0  0  0  0  0  0  0  0  0  0
  160.4360   46.6367  149.0683 O   0  0  0  0  0  0  0  0  0  0  0  0
  159.6179   47.2018  150.0844 C   0  0  0  0  0  0  0  0  0  0  0  0
  158.2702   46.5002  150.1168 C   0  0  1  0  0  0  0  0  0  0  0  0
  157.3177   47.3489  149.4919 O   0  0  0  0  0  0  0  0  0  0  0  0
  158.2020   45.1684  149.3802 C   0  0  1  0  0  0  0  0  0  0  0  0
  158.2244   44.1021  150.3177 O   0  0  0  0  0  0  0  0  0  0  0  0
  156.8365   45.1944  148.7310 C   0  0  1  0  0  0  0  0  0  0  0  0
  155.8719   44.6268  149.6195 O   0  0  0  0  0  0  0  0  0  0  0  0
  156.4875   46.6465  148.5797 C   0  0  2  0  0  0  0  0  0  0  0  0
  156.8179   47.0858  147.2033 N   0  0  0  0  0  0  0  0  0  0  0  0
  157.8242   47.9103  146.8644 C   0  0  0  0  0  0  0  0  0  0  0  0
  157.8391   48.1202  145.5261 N   0  0  0  0  0  0  0  0  0  0  0  0
  156.8259   47.4217  144.9836 C   0  0  0  0  0  0  0  0  0  0  0  0
  156.2830   47.2032  143.6222 C   0  0  0  0  0  0  0  0  0  0  0  0
  156.8127   47.7633  142.6324 O   0  0  0  0  0  0  0  0  0  0  0  0
  155.2160   46.3960  143.4938 N   0  0  0  0  0  0  0  0  0  0  0  0
  154.6501   45.7984  144.5595 C   0  0  0  0  0  0  0  0  0  0  0  0
  153.5813   44.9927  144.3701 N   0  0  0  0  0  0  0  0  0  0  0  0
  155.0945   45.9548  145.8271 N   0  0  0  0  0  0  0  0  0  0  0  0
  156.1588   46.7405  146.0974 C   0  0  0  0  0  0  0  0  0  0  0  0
  158.4407   42.5489  149.8969 P   0  0  2  0  0  0  0  0  0  0  0  0
  157.5035   42.2073  148.7641 O   0  0  0  0  0  0  0  0  0  0  0  0
  158.4215   41.7568  151.1907 O   0  0  0  0  0  0  0  0  0  0  0  0
  159.9409   42.5584  149.2979 O   0  0  0  0  0  0  0  0  0  0  0  0
  161.0634   42.5342  150.1787 C   0  0  0  0  0  0  0  0  0  0  0  0
  162.3608   43.0061  149.5149 C   0  0  1  0  0  0  0  0  0  0  0  0
  162.8280   41.9954  148.6188 O   0  0  0  0  0  0  0  0  0  0  0  0
  162.2413   44.2946  148.7042 C   0  0  1  0  0  0  0  0  0  0  0  0
  162.5975   45.4479  149.4653 O   0  0  0  0  0  0  0  0  0  0  0  0
  163.2176   44.0528  147.5681 C   0  0  1  0  0  0  0  0  0  0  0  0
  164.5400   44.4510  147.9403 O   0  0  0  0  0  0  0  0  0  0  0  0
  163.2350   42.5520  147.3660 C   0  0  2  0  0  0  0  0  0  0  0  0
  162.2384   42.1793  146.3316 N   0  0  0  0  0  0  0  0  0  0  0  0
  161.2831   41.2377  146.4635 C   0  0  0  0  0  0  0  0  0  0  0  0
  160.5134   41.1355  145.3445 N   0  0  0  0  0  0  0  0  0  0  0  0
  160.9742   42.0378  144.4637 C   0  0  0  0  0  0  0  0  0  0  0  0
  160.6327   42.4546  143.0798 C   0  0  0  0  0  0  0  0  0  0  0  0
  159.6870   41.9444  142.4414 O   0  0  0  0  0  0  0  0  0  0  0  0
  161.3629   43.4275  142.5321 N   0  0  0  0  0  0  0  0  0  0  0  0
  162.3841   44.0111  143.1782 C   0  0  0  0  0  0  0  0  0  0  0  0
  163.0599   44.9696  142.5271 N   0  0  0  0  0  0  0  0  0  0  0  0
  162.7618   43.6810  144.4355 N   0  0  0  0  0  0  0  0  0  0  0  0
  162.1090   42.7181  145.1195 C   0  0  0  0  0  0  0  0  0  0  0  0
  1  3  2  6  0  0  0
  1 32  1  0  0  0  0
  1  2  1  0  0  0  0
  1  4  1  0  0  0  0
  4  5  1  0  0  0  0
  6  5  1  6  0  0  0
  7  6  1  0  0  0  0
  8  6  1  0  0  0  0
  8 10  1  0  0  0  0
  8  9  1  1  0  0  0
 10 11  1  1  0  0  0
 12 13  1  6  0  0  0
 12  7  1  0  0  0  0
 12 10  1  0  0  0  0
 14 13  1  0  0  0  0
 15 16  1  0  0  0  0
 15 14  2  0  0  0  0
 16 23  2  0  0  0  0
 17 16  1  0  0  0  0
 17 19  1  0  0  0  0
 18 17  2  0  0  0  0
 19 20  2  0  0  0  0
 20 22  1  0  0  0  0
 20 21  1  0  0  0  0
 23 13  1  0  0  0  0
 23 22  1  0  0  0  0
 24 25  2  6  0  0  0
 24  9  1  0  0  0  0
 24 26  1  0  0  0  0
 27 28  1  0  0  0  0
 27 24  1  0  0  0  0
 29 30  1  6  0  0  0
 29 28  1  0  0  0  0
 31 32  1  1  0  0  0
 31 29  1  0  0  0  0
 33 34  1  1  0  0  0
 33 35  1  0  0  0  0
 33 31  1  0  0  0  0
 35 36  1  6  0  0  0
 35 30  1  0  0  0  0
 36 37  1  0  0  0  0
 38 37  2  0  0  0  0
 39 38  1  0  0  0  0
 40 41  2  0  0  0  0
 40 39  1  0  0  0  0
 42 40  1  0  0  0  0
 43 42  2  0  0  0  0
 43 45  1  0  0  0  0
 44 43  1  0  0  0  0
 45 46  1  0  0  0  0
 46 39  2  0  0  0  0
 46 36  1  0  0  0  0
M  END
>  <CHROM.1>
6.06871769,-13.74796534,159.59870836,44.73596597,147.21170473,0.24419568
-0.46005561,1.46262891

>  <Name>
lig.pdb

>  <RI>
0

>  <Rbt.Current_Directory>
/home/itssahil/PROJECTS/Mol_Feturizer/New_Systems/rnas/4yb0

>  <Rbt.Executable>
rbdock ($Id: //depot/dev/client3/rdock/2013.1/src/exe/rbdock.cxx#4 $)

>  <Rbt.Library>
libRbt.so (2013.1, Build901 2013/11/27)

>  <Rbt.Parameter_File>
/export/apps/rDock/src/rDock_2013.1_src/data/scripts/dock_solv.prm

>  <Rbt.Receptor>
prm/pocket_docking_7.prm

>  <SCORE>
-19.1781

>  <SCORE.INTER>
-19.2318

>  <SCORE.INTER.CONST>
1

>  <SCORE.INTER.POLAR>
0

>  <SCORE.INTER.ROT>
2

>  <SCORE.INTER.SOLV>
20.1972

>  <SCORE.INTER.VDW>
-24.4869

>  <SCORE.INTER.norm>
-0.418082

>  <SCORE.INTRA>
0.0536485

>  <SCORE.INTRA.DIHEDRAL>
0.00254209

>  <SCORE.INTRA.DIHEDRAL.0>
4.74153

>  <SCORE.INTRA.POLAR>
0

>  <SCORE.INTRA.POLAR.0>
0

>  <SCORE.INTRA.REPUL>
0

>  <SCORE.INTRA.REPUL.0>
0

>  <SCORE.INTRA.SOLV>
0.00360233

>  <SCORE.INTRA.SOLV.lig_0>
-60.4375

>  <SCORE.INTRA.VDW>
0.0505763

>  <SCORE.INTRA.VDW.0>
-1.83689

>  <SCORE.INTRA.norm>
0.00116627

>  <SCORE.RESTR>
0

>  <SCORE.RESTR.CAVITY>
0

>  <SCORE.RESTR.norm>
0

>  <SCORE.SYSTEM>
0

>  <SCORE.SYSTEM.CONST>
0

>  <SCORE.SYSTEM.DIHEDRAL>
0

>  <SCORE.SYSTEM.SOLV>
0

>  <SCORE.SYSTEM.norm>
0

>  <SCORE.heavy>
46

>  <SCORE.norm>
-0.416916

>  <RMSD>
4.633

$$$$
lig.pdb
 OpenBabel11021811523D
libRbt.so/2013.1/901 2013/11/27
 46 52  0  0  0  0  0  0  0  0999 V2000
  160.3169   48.0019  142.0152 P   0  0  2  0  0  0  0  0  0  0  0  0
  160.5998   49.3090  141.3074 O   0  0  0  0  0  0  0  0  0  0  0  0
  159.6419   46.9251  141.2054 O   0  0  0  0  0  0  0  0  0  0  0  0
  159.4608   48.2366  143.3558 O   0  0  0  0  0  0  0  0  0  0  0  0
  159.2269   49.5409  143.8708 C   0  0  0  0  0  0  0  0  0  0  0  0
  158.7517   49.4534  145.3117 C   0  0  1  0  0  0  0  0  0  0  0  0
  157.3485   49.6744  145.3260 O   0  0  0  0  0  0  0  0  0  0  0  0
  158.9789   48.1139  146.0009 C   0  0  1  0  0  0  0  0  0  0  0  0
  160.0815   48.2149  146.8901 O   0  0  0  0  0  0  0  0  0  0  0  0
  157.7258   47.9254  146.8262 C   0  0  1  0  0  0  0  0  0  0  0  0
  157.9136   48.4989  148.1215 O   0  0  0  0  0  0  0  0  0  0  0  0
  156.6639   48.7356  146.1412 C   0  0  2  0  0  0  0  0  0  0  0  0
  155.8606   47.8469  145.2685 N   0  0  0  0  0  0  0  0  0  0  0  0
  155.5625   48.0772  143.9779 C   0  0  0  0  0  0  0  0  0  0  0  0
  154.7997   47.0754  143.4782 N   0  0  0  0  0  0  0  0  0  0  0  0
  154.5966   46.1776  144.4588 C   0  0  0  0  0  0  0  0  0  0  0  0
  153.8809   44.8876  144.5994 C   0  0  0  0  0  0  0  0  0  0  0  0
  153.2581   44.4003  143.6255 O   0  0  0  0  0  0  0  0  0  0  0  0
  153.9234   44.2729  145.7939 N   0  0  0  0  0  0  0  0  0  0  0  0
  154.5921   44.8010  146.8366 C   0  0  0  0  0  0  0  0  0  0  0  0
  154.6047   44.1360  148.0134 N   0  0  0  0  0  0  0  0  0  0  0  0
  155.2649   45.9725  146.7766 N   0  0  0  0  0  0  0  0  0  0  0  0
  155.3021   46.6938  145.6359 C   0  0  0  0  0  0  0  0  0  0  0  0
  160.7847   46.9289  147.5884 P   0  0  2  0  0  0  0  0  0  0  0  0
  159.7190   46.0531  148.2012 O   0  0  0  0  0  0  0  0  0  0  0  0
  161.9220   47.4775  148.4295 O   0  0  0  0  0  0  0  0  0  0  0  0
  161.3927   46.1354  146.3195 O   0  0  0  0  0  0  0  0  0  0  0  0
  162.6224   46.5593  145.7325 C   0  0  0  0  0  0  0  0  0  0  0  0
  162.8244   46.0312  144.3088 C   0  0  1  0  0  0  0  0  0  0  0  0
  163.1347   44.6370  144.3614 O   0  0  0  0  0  0  0  0  0  0  0  0
  161.6170   46.1807  143.3858 C   0  0  1  0  0  0  0  0  0  0  0  0
  161.6798   47.3709  142.6012 O   0  0  0  0  0  0  0  0  0  0  0  0
  161.7154   44.9373  142.5218 C   0  0  1  0  0  0  0  0  0  0  0  0
  162.5628   45.1680  141.3929 O   0  0  0  0  0  0  0  0  0  0  0  0
  162.3898   43.8965  143.3909 C   0  0  2  0  0  0  0  0  0  0  0  0
  161.3586   43.0924  144.0924 N   0  0  0  0  0  0  0  0  0  0  0  0
  160.2170   42.6289  143.5460 C   0  0  0  0  0  0  0  0  0  0  0  0
  159.4808   41.9123  144.4403 N   0  0  0  0  0  0  0  0  0  0  0  0
  160.1629   41.9027  145.5965 C   0  0  0  0  0  0  0  0  0  0  0  0
  159.9577   41.3418  146.9563 C   0  0  0  0  0  0  0  0  0  0  0  0
  158.9515   40.6634  147.2555 O   0  0  0  0  0  0  0  0  0  0  0  0
  160.9093   41.5651  147.8642 N   0  0  0  0  0  0  0  0  0  0  0  0
  162.0106   42.2815  147.5907 C   0  0  0  0  0  0  0  0  0  0  0  0
  162.8962   42.4559  148.5830 N   0  0  0  0  0  0  0  0  0  0  0  0
  162.2649   42.8318  146.3805 N   0  0  0  0  0  0  0  0  0  0  0  0
  161.3947   42.6820  145.3599 C   0  0  0  0  0  0  0  0  0  0  0  0
  1  3  2  6  0  0  0
  1 32  1  0  0  0  0
  1  2  1  0  0  0  0
  1  4  1  0  0  0  0
  4  5  1  0  0  0  0
  6  5  1  6  0  0  0
  7  6  1  0  0  0  0
  8  6  1  0  0  0  0
  8 10  1  0  0  0  0
  8  9  1  1  0  0  0
 10 11  1  1  0  0  0
 12 13  1  6  0  0  0
 12  7  1  0  0  0  0
 12 10  1  0  0  0  0
 14 13  1  0  0  0  0
 15 16  1  0  0  0  0
 15 14  2  0  0  0  0
 16 23  2  0  0  0  0
 17 16  1  0  0  0  0
 17 19  1  0  0  0  0
 18 17  2  0  0  0  0
 19 20  2  0  0  0  0
 20 22  1  0  0  0  0
 20 21  1  0  0  0  0
 23 13  1  0  0  0  0
 23 22  1  0  0  0  0
 24 25  2  1  0  0  0
 24  9  1  0  0  0  0
 24 26  1  0  0  0  0
 27 28  1  0  0  0  0
 27 24  1  0  0  0  0
 29 30  1  1  0  0  0
 29 28  1  0  0  0  0
 31 32  1  6  0  0  0
 31 29  1  0  0  0  0
 33 34  1  6  0  0  0
 33 35  1  0  0  0  0
 33 31  1  0  0  0  0
 35 36  1  1  0  0  0
 35 30  1  0  0  0  0
 36 37  1  0  0  0  0
 38 37  2  0  0  0  0
 39 38  1  0  0  0  0
 40 41  2  0  0  0  0
 40 39  1  0  0  0  0
 42 40  1  0  0  0  0
 43 42  2  0  0  0  0
 43 45  1  0  0  0  0
 44 43  1  0  0  0  0
 45 46  1  0  0  0  0
 46 39  2  0  0  0  0
 46 36  1  0  0  0  0
M  END
>  <CHROM.1>
-14.91619000,156.76242338,159.26212879,45.84644861,145.19246273,-2.75237412
-0.22000564,2.60170920

>  <Name>
lig.pdb

>  <RI>
0

>  <Rbt.Current_Directory>
/home/itssahil/PROJECTS/Mol_Feturizer/New_Systems/rnas/4yb0

>  <Rbt.Executable>
rbdock ($Id: //depot/dev/client3/rdock/2013.1/src/exe/rbdock.cxx#4 $)

>  <Rbt.Library>
libRbt.so (2013.1, Build901 2013/11/27)

>  <Rbt.Parameter_File>
/export/apps/rDock/src/rDock_2013.1_src/data/scripts/dock_solv.prm

>  <Rbt.Receptor>
prm/pocket_docking_4.prm

>  <SCORE>
-19.0492

>  <SCORE.INTER>
-19.7473

>  <SCORE.INTER.CONST>
1

>  <SCORE.INTER.POLAR>
0

>  <SCORE.INTER.ROT>
2

>  <SCORE.INTER.SOLV>
20.9214

>  <SCORE.INTER.VDW>
-25.072

>  <SCORE.INTER.norm>
-0.429289

>  <SCORE.INTRA>
0.113294

>  <SCORE.INTRA.DIHEDRAL>
0.146969

>  <SCORE.INTRA.DIHEDRAL.0>
4.74153

>  <SCORE.INTRA.POLAR>
0

>  <SCORE.INTRA.POLAR.0>
0

>  <SCORE.INTRA.REPUL>
0.00880799

>  <SCORE.INTRA.REPUL.0>
0

>  <SCORE.INTRA.SOLV>
0.205399

>  <SCORE.INTRA.SOLV.lig_0>
-60.4375

>  <SCORE.INTRA.VDW>
-0.10693

>  <SCORE.INTRA.VDW.0>
-1.83689

>  <SCORE.INTRA.norm>
0.00246291

>  <SCORE.RESTR>
0.584864

>  <SCORE.RESTR.CAVITY>
0.584864

>  <SCORE.RESTR.norm>
0.0127144

>  <SCORE.SYSTEM>
0

>  <SCORE.SYSTEM.CONST>
0

>  <SCORE.SYSTEM.DIHEDRAL>
0

>  <SCORE.SYSTEM.SOLV>
0

>  <SCORE.SYSTEM.norm>
0

>  <SCORE.heavy>
46

>  <SCORE.norm>
-0.414112

>  <RMSD>
4.652

$$$$
lig.pdb
 OpenBabel11021811523D
libRbt.so/2013.1/901 2013/11/27
 46 52  0  0  0  0  0  0  0  0999 V2000
  160.5793   44.2631  149.4181 P   0  0  2  0  0  0  0  0  0  0  0  0
  161.5717   43.8736  150.4919 O   0  0  0  0  0  0  0  0  0  0  0  0
  159.9909   43.1421  148.6006 O   0  0  0  0  0  0  0  0  0  0  0  0
  161.2048   45.3483  148.4100 O   0  0  0  0  0  0  0  0  0  0  0  0
  162.4476   45.9841  148.6786 C   0  0  0  0  0  0  0  0  0  0  0  0
  162.6028   47.2143  147.7998 C   0  0  1  0  0  0  0  0  0  0  0  0
  163.4980   46.8911  146.7453 O   0  0  0  0  0  0  0  0  0  0  0  0
  161.3266   47.7161  147.1363 C   0  0  1  0  0  0  0  0  0  0  0  0
  160.8560   48.8701  147.8171 O   0  0  0  0  0  0  0  0  0  0  0  0
  161.7879   48.1385  145.7595 C   0  0  1  0  0  0  0  0  0  0  0  0
  162.1830   49.5116  145.7861 O   0  0  0  0  0  0  0  0  0  0  0  0
  163.0252   47.3349  145.4827 C   0  0  2  0  0  0  0  0  0  0  0  0
  162.6642   46.1502  144.6686 N   0  0  0  0  0  0  0  0  0  0  0  0
  163.4180   45.0481  144.5118 C   0  0  0  0  0  0  0  0  0  0  0  0
  162.8028   44.1616  143.6927 N   0  0  0  0  0  0  0  0  0  0  0  0
  161.6291   44.6943  143.3088 C   0  0  0  0  0  0  0  0  0  0  0  0
  160.4949   44.2814  142.4490 C   0  0  0  0  0  0  0  0  0  0  0  0
  160.5148   43.1709  141.8657 O   0  0  0  0  0  0  0  0  0  0  0  0
  159.4626   45.1324  142.3199 N   0  0  0  0  0  0  0  0  0  0  0  0
  159.4467   46.3239  142.9470 C   0  0  0  0  0  0  0  0  0  0  0  0
  158.3795   47.1375  142.7844 N   0  0  0  0  0  0  0  0  0  0  0  0
  160.4473   46.7618  143.7444 N   0  0  0  0  0  0  0  0  0  0  0  0
  161.5450   46.0056  143.9592 C   0  0  0  0  0  0  0  0  0  0  0  0
  159.3871   49.5154  147.5682 P   0  0  2  0  0  0  0  0  0  0  0  0
  159.1611   49.6757  146.0844 O   0  0  0  0  0  0  0  0  0  0  0  0
  159.2865   50.7043  148.5053 O   0  0  0  0  0  0  0  0  0  0  0  0
  158.4023   48.3434  148.0839 O   0  0  0  0  0  0  0  0  0  0  0  0
  158.1551   48.1789  149.4797 C   0  0  0  0  0  0  0  0  0  0  0  0
  157.6044   46.7943  149.8353 C   0  0  1  0  0  0  0  0  0  0  0  0
  156.2425   46.7041  149.4113 O   0  0  0  0  0  0  0  0  0  0  0  0
  158.3444   45.6204  149.1980 C   0  0  1  0  0  0  0  0  0  0  0  0
  159.3465   45.0809  150.0588 O   0  0  0  0  0  0  0  0  0  0  0  0
  157.2241   44.6264  148.9548 C   0  0  1  0  0  0  0  0  0  0  0  0
  157.0044   43.8144  150.1116 O   0  0  0  0  0  0  0  0  0  0  0  0
  155.9808   45.4655  148.7460 C   0  0  2  0  0  0  0  0  0  0  0  0
  155.7990   45.7308  147.2973 N   0  0  0  0  0  0  0  0  0  0  0  0
  156.6489   46.4218  146.5119 C   0  0  0  0  0  0  0  0  0  0  0  0
  156.2124   46.4837  145.2232 N   0  0  0  0  0  0  0  0  0  0  0  0
  155.0524   45.8103  145.1657 C   0  0  0  0  0  0  0  0  0  0  0  0
  154.0497   45.4921  144.1174 C   0  0  0  0  0  0  0  0  0  0  0  0
  154.1851   45.8558  142.9294 O   0  0  0  0  0  0  0  0  0  0  0  0
  152.9882   44.7700  144.4801 N   0  0  0  0  0  0  0  0  0  0  0  0
  152.8002   44.3505  145.7409 C   0  0  0  0  0  0  0  0  0  0  0  0
  151.6900   43.6426  145.9972 N   0  0  0  0  0  0  0  0  0  0  0  0
  153.6626   44.6070  146.7522 N   0  0  0  0  0  0  0  0  0  0  0  0
  154.7870   45.3204  146.5333 C   0  0  0  0  0  0  0  0  0  0  0  0
  1  3  2  6  0  0  0
  1 32  1  0  0  0  0
  1  2  1  0  0  0  0
  1  4  1  0  0  0  0
  4  5  1  0  0  0  0
  6  5  1  6  0  0  0
  7  6  1  0  0  0  0
  8  6  1  0  0  0  0
  8 10  1  0  0  0  0
  8  9  1  1  0  0  0
 10 11  1  1  0  0  0
 12 13  1  6  0  0  0
 12  7  1  0  0  0  0
 12 10  1  0  0  0  0
 14 13  1  0  0  0  0
 15 16  1  0  0  0  0
 15 14  2  0  0  0  0
 16 23  2  0  0  0  0
 17 16  1  0  0  0  0
 17 19  1  0  0  0  0
 18 17  2  0  0  0  0
 19 20  2  0  0  0  0
 20 22  1  0  0  0  0
 20 21  1  0  0  0  0
 23 13  1  0  0  0  0
 23 22  1  0  0  0  0
 24 25  2  6  0  0  0
 24  9  1  0  0  0  0
 24 26  1  0  0  0  0
 27 28  1  0  0  0  0
 27 24  1  0  0  0  0
 29 30  1  6  0  0  0
 29 28  1  0  0  0  0
 31 32  1  1  0  0  0
 31 29  1  0  0  0  0
 33 34  1  1  0  0  0
 33 35  1  0  0  0  0
 33 31  1  0  0  0  0
 35 36  1  6  0  0  0
 35 30  1  0  0  0  0
 36 37  1  0  0  0  0
 38 37  2  0  0  0  0
 39 38  1  0  0  0  0
 40 41  2  0  0  0  0
 40 39  1  0  0  0  0
 42 40  1  0  0  0  0
 43 42  2  0  0  0  0
 43 45  1  0  0  0  0
 44 43  1  0  0  0  0
 45 46  1  0  0  0  0
 46 39  2  0  0  0  0
 46 36  1  0  0  0  0
M  END
>  <CHROM.1>
-46.94128115,51.76116352,158.92824604,46.16104600,146.60047401,0.05700379
0.19201455,1.42076472

>  <Name>
lig.pdb

>  <RI>
0

>  <Rbt.Current_Directory>
/home/itssahil/PROJECTS/Mol_Feturizer/New_Systems/rnas/4yb0

>  <Rbt.Executable>
rbdock ($Id: //depot/dev/client3/rdock/2013.1/src/exe/rbdock.cxx#4 $)

>  <Rbt.Library>
libRbt.so (2013.1, Build901 2013/11/27)

>  <Rbt.Parameter_File>
/export/apps/rDock/src/rDock_2013.1_src/data/scripts/dock_solv.prm

>  <Rbt.Receptor>
prm/pocket_docking_7.prm

>  <SCORE>
-22.4184

>  <SCORE.INTER>
-22.8214

>  <SCORE.INTER.CONST>
1

>  <SCORE.INTER.POLAR>
0

>  <SCORE.INTER.ROT>
2

>  <SCORE.INTER.SOLV>
17.4428

>  <SCORE.INTER.VDW>
-25.9618

>  <SCORE.INTER.norm>
-0.496117

>  <SCORE.INTRA>
0.403011

>  <SCORE.INTRA.DIHEDRAL>
0.114614

>  <SCORE.INTRA.DIHEDRAL.0>
4.74153

>  <SCORE.INTRA.POLAR>
0

>  <SCORE.INTRA.POLAR.0>
0

>  <SCORE.INTRA.REPUL>
0

>  <SCORE.INTRA.REPUL.0>
0

>  <SCORE.INTRA.SOLV>
0.690809

>  <SCORE.INTRA.SOLV.lig_0>
-60.4375

>  <SCORE.INTRA.VDW>
0.000299204

>  <SCORE.INTRA.VDW.0>
-1.83689

>  <SCORE.INTRA.norm>
0.0087611

>  <SCORE.RESTR>
0

>  <SCORE.RESTR.CAVITY>
0

>  <SCORE.RESTR.norm>
0

>  <SCORE.SYSTEM>
0

>  <SCORE.SYSTEM.CONST>
0

>  <SCORE.SYSTEM.DIHEDRAL>
0

>  <SCORE.SYSTEM.SOLV>
0

>  <SCORE.SYSTEM.norm>
0

>  <SCORE.heavy>
46

>  <SCORE.norm>
-0.487355

>  <RMSD>
4.697

$$$$
lig.pdb
 OpenBabel11021811523D
libRbt.so/2013.1/901 2013/11/27
 46 52  0  0  0  0  0  0  0  0999 V2000
  160.3802   43.9715  150.0440 P   0  0  2  0  0  0  0  0  0  0  0  0
  161.2561   43.5665  151.2095 O   0  0  0  0  0  0  0  0  0  0  0  0
  159.7193   42.8573  149.2740 O   0  0  0  0  0  0  0  0  0  0  0  0
  161.1833   44.8970  149.0031 O   0  0  0  0  0  0  0  0  0  0  0  0
  162.4715   45.4152  149.3082 C   0  0  0  0  0  0  0  0  0  0  0  0
  162.8169   46.5456  148.3529 C   0  0  1  0  0  0  0  0  0  0  0  0
  163.7316   46.0427  147.3893 O   0  0  0  0  0  0  0  0  0  0  0  0
  161.6475   47.1259  147.5677 C   0  0  1  0  0  0  0  0  0  0  0  0
  161.2699   48.3756  148.1265 O   0  0  0  0  0  0  0  0  0  0  0  0
  162.2352   47.3823  146.1981 C   0  0  1  0  0  0  0  0  0  0  0  0
  162.7802   48.7024  146.1493 O   0  0  0  0  0  0  0  0  0  0  0  0
  163.3884   46.4302  146.0677 C   0  0  2  0  0  0  0  0  0  0  0  0
  162.9457   45.2286  145.3213 N   0  0  0  0  0  0  0  0  0  0  0  0
  162.9809   43.9650  145.7790 C   0  0  0  0  0  0  0  0  0  0  0  0
  162.5181   43.1045  144.8406 N   0  0  0  0  0  0  0  0  0  0  0  0
  162.1760   43.8183  143.7533 C   0  0  0  0  0  0  0  0  0  0  0  0
  161.6184   43.5268  142.4117 C   0  0  0  0  0  0  0  0  0  0  0  0
  161.3594   42.3456  142.0773 O   0  0  0  0  0  0  0  0  0  0  0  0
  161.4076   44.5620  141.5807 N   0  0  0  0  0  0  0  0  0  0  0  0
  161.6886   45.8277  141.9439 C   0  0  0  0  0  0  0  0  0  0  0  0
  161.4516   46.8302  141.0686 N   0  0  0  0  0  0  0  0  0  0  0  0
  162.1986   46.1630  143.1507 N   0  0  0  0  0  0  0  0  0  0  0  0
  162.4596   45.2192  144.0803 C   0  0  0  0  0  0  0  0  0  0  0  0
  159.9006   49.1527  147.7299 P   0  0  2  0  0  0  0  0  0  0  0  0
  159.7836   49.2146  146.2263 O   0  0  0  0  0  0  0  0  0  0  0  0
  159.8787   50.4182  148.5666 O   0  0  0  0  0  0  0  0  0  0  0  0
  158.7609   48.1396  148.2627 O   0  0  0  0  0  0  0  0  0  0  0  0
  158.4134   48.1173  149.6466 C   0  0  0  0  0  0  0  0  0  0  0  0
  157.6898   46.8338  150.0659 C   0  0  1  0  0  0  0  0  0  0  0  0
  156.3544   46.8564  149.5572 O   0  0  0  0  0  0  0  0  0  0  0  0
  158.3297   45.5389  149.5703 C   0  0  1  0  0  0  0  0  0  0  0  0
  159.2112   44.9669  150.5357 O   0  0  0  0  0  0  0  0  0  0  0  0
  157.1212   44.6548  149.3256 C   0  0  1  0  0  0  0  0  0  0  0  0
  156.7423   43.9685  150.5219 O   0  0  0  0  0  0  0  0  0  0  0  0
  155.9952   45.6030  148.9699 C   0  0  2  0  0  0  0  0  0  0  0  0
  155.9317   45.7670  147.4963 N   0  0  0  0  0  0  0  0  0  0  0  0
  156.8845   46.3287  146.7261 C   0  0  0  0  0  0  0  0  0  0  0  0
  156.5408   46.3221  145.4081 N   0  0  0  0  0  0  0  0  0  0  0  0
  155.3368   45.7352  145.3163 C   0  0  0  0  0  0  0  0  0  0  0  0
  154.3835   45.4122  144.2243 C   0  0  0  0  0  0  0  0  0  0  0  0
  154.6262   45.6706  143.0258 O   0  0  0  0  0  0  0  0  0  0  0  0
  153.2457   44.8024  144.5611 N   0  0  0  0  0  0  0  0  0  0  0  0
  152.9415   44.4981  145.8322 C   0  0  0  0  0  0  0  0  0  0  0  0
  151.7635   43.8977  146.0586 N   0  0  0  0  0  0  0  0  0  0  0  0
  153.7527   44.7675  146.8817 N   0  0  0  0  0  0  0  0  0  0  0  0
  154.9429   45.3752  146.6932 C   0  0  0  0  0  0  0  0  0  0  0  0
  1  3  2  6  0  0  0
  1 32  1  0  0  0  0
  1  2  1  0  0  0  0
  1  4  1  0  0  0  0
  4  5  1  0  0  0  0
  6  5  1  1  0  0  0
  7  6  1  0  0  0  0
  8  6  1  0  0  0  0
  8 10  1  0  0  0  0
  8  9  1  1  0  0  0
 10 11  1  1  0  0  0
 12 13  1  6  0  0  0
 12  7  1  0  0  0  0
 12 10  1  0  0  0  0
 14 13  1  0  0  0  0
 15 16  1  0  0  0  0
 15 14  2  0  0  0  0
 16 23  2  0  0  0  0
 17 16  1  0  0  0  0
 17 19  1  0  0  0  0
 18 17  2  0  0  0  0
 19 20  2  0  0  0  0
 20 22  1  0  0  0  0
 20 21  1  0  0  0  0
 23 13  1  0  0  0  0
 23 22  1  0  0  0  0
 24 25  2  6  0  0  0
 24  9  1  0  0  0  0
 24 26  1  0  0  0  0
 27 28  1  0  0  0  0
 27 24  1  0  0  0  0
 29 30  1  6  0  0  0
 29 28  1  0  0  0  0
 31 32  1  1  0  0  0
 31 29  1  0  0  0  0
 33 34  1  1  0  0  0
 33 35  1  0  0  0  0
 33 31  1  0  0  0  0
 35 36  1  6  0  0  0
 35 30  1  0  0  0  0
 36 37  1  0  0  0  0
 38 37  2  0  0  0  0
 39 38  1  0  0  0  0
 40 41  2  0  0  0  0
 40 39  1  0  0  0  0
 42 40  1  0  0  0  0
 43 42  2  0  0  0  0
 43 45  1  0  0  0  0
 44 43  1  0  0  0  0
 45 46  1  0  0  0  0
 46 39  2  0  0  0  0
 46 36  1  0  0  0  0
M  END
>  <CHROM.1>
-5.65776321,49.86217281,159.30423091,45.81040409,146.84899970,-0.21130045
0.09798856,1.39436956

>  <Name>
lig.pdb

>  <RI>
0

>  <Rbt.Current_Directory>
/home/itssahil/PROJECTS/Mol_Feturizer/New_Systems/rnas/4yb0

>  <Rbt.Executable>
rbdock ($Id: //depot/dev/client3/rdock/2013.1/src/exe/rbdock.cxx#4 $)

>  <Rbt.Library>
libRbt.so (2013.1, Build901 2013/11/27)

>  <Rbt.Parameter_File>
/export/apps/rDock/src/rDock_2013.1_src/data/scripts/dock_solv.prm

>  <Rbt.Receptor>
prm/pocket_docking_7.prm

>  <SCORE>
-24.3851

>  <SCORE.INTER>
-24.3738

>  <SCORE.INTER.CONST>
1

>  <SCORE.INTER.POLAR>
0

>  <SCORE.INTER.ROT>
2

>  <SCORE.INTER.SOLV>
19.1392

>  <SCORE.INTER.VDW>
-27.5623

>  <SCORE.INTER.norm>
-0.529865

>  <SCORE.INTRA>
-0.0113513

>  <SCORE.INTRA.DIHEDRAL>
0.102736

>  <SCORE.INTRA.DIHEDRAL.0>
4.74153

>  <SCORE.INTRA.POLAR>
0

>  <SCORE.INTRA.POLAR.0>
0

>  <SCORE.INTRA.REPUL>
0

>  <SCORE.INTRA.REPUL.0>
0

>  <SCORE.INTRA.SOLV>
0.0865859

>  <SCORE.INTRA.SOLV.lig_0>
-60.4375

>  <SCORE.INTRA.VDW>
-0.106012

>  <SCORE.INTRA.VDW.0>
-1.83689

>  <SCORE.INTRA.norm>
-0.000246767

>  <SCORE.RESTR>
0

>  <SCORE.RESTR.CAVITY>
0

>  <SCORE.RESTR.norm>
0

>  <SCORE.SYSTEM>
0

>  <SCORE.SYSTEM.CONST>
0

>  <SCORE.SYSTEM.DIHEDRAL>
0

>  <SCORE.SYSTEM.SOLV>
0

>  <SCORE.SYSTEM.norm>
0

>  <SCORE.heavy>
46

>  <SCORE.norm>
-0.530112

>  <RMSD>
4.706

$$$$
lig.pdb
 OpenBabel11021811523D
libRbt.so/2013.1/901 2013/11/27
 46 52  0  0  0  0  0  0  0  0999 V2000
  160.9472   46.1400  142.4862 P   0  0  2  0  0  0  0  0  0  0  0  0
  161.5768   47.1572  141.5597 O   0  0  0  0  0  0  0  0  0  0  0  0
  160.0074   45.1426  141.8592 O   0  0  0  0  0  0  0  0  0  0  0  0
  160.1831   46.8553  143.7067 O   0  0  0  0  0  0  0  0  0  0  0  0
  160.3110   48.2501  143.9498 C   0  0  0  0  0  0  0  0  0  0  0  0
  159.8256   48.5803  145.3516 C   0  0  1  0  0  0  0  0  0  0  0  0
  158.5353   49.1645  145.2437 O   0  0  0  0  0  0  0  0  0  0  0  0
  159.6781   47.3933  146.2951 C   0  0  1  0  0  0  0  0  0  0  0  0
  160.7640   47.3722  147.2099 O   0  0  0  0  0  0  0  0  0  0  0  0
  158.4185   47.7124  147.0686 C   0  0  1  0  0  0  0  0  0  0  0  0
  158.7512   48.4610  148.2395 O   0  0  0  0  0  0  0  0  0  0  0  0
  157.6189   48.6229  146.1826 C   0  0  2  0  0  0  0  0  0  0  0  0
  156.6069   47.8246  145.4509 N   0  0  0  0  0  0  0  0  0  0  0  0
  156.2655   47.9856  144.1605 C   0  0  0  0  0  0  0  0  0  0  0  0
  155.2989   47.1040  143.8090 N   0  0  0  0  0  0  0  0  0  0  0  0
  155.0048   46.3563  144.8876 C   0  0  0  0  0  0  0  0  0  0  0  0
  154.0769   45.2438  145.1998 C   0  0  0  0  0  0  0  0  0  0  0  0
  153.3082   44.7943  144.3161 O   0  0  0  0  0  0  0  0  0  0  0  0
  154.0906   44.7464  146.4484 N   0  0  0  0  0  0  0  0  0  0  0  0
  154.9165   45.2335  147.3937 C   0  0  0  0  0  0  0  0  0  0  0  0
  154.8904   44.6909  148.6316 N   0  0  0  0  0  0  0  0  0  0  0  0
  155.7863   46.2458  147.1763 N   0  0  0  0  0  0  0  0  0  0  0  0
  155.8742   46.8374  145.9658 C   0  0  0  0  0  0  0  0  0  0  0  0
  161.0892   46.1109  148.1792 P   0  0  2  0  0  0  0  0  0  0  0  0
  159.8238   45.6898  148.8860 O   0  0  0  0  0  0  0  0  0  0  0  0
  162.3303   46.4933  148.9637 O   0  0  0  0  0  0  0  0  0  0  0  0
  161.4624   44.9486  147.1213 O   0  0  0  0  0  0  0  0  0  0  0  0
  162.7628   44.9050  146.5351 C   0  0  0  0  0  0  0  0  0  0  0  0
  162.8179   44.0702  145.2518 C   0  0  1  0  0  0  0  0  0  0  0  0
  162.7375   42.6831  145.5866 O   0  0  0  0  0  0  0  0  0  0  0  0
  161.6994   44.3488  144.2502 C   0  0  1  0  0  0  0  0  0  0  0  0
  162.0857   45.2989  143.2581 O   0  0  0  0  0  0  0  0  0  0  0  0
  161.4587   42.9780  143.6458 C   0  0  1  0  0  0  0  0  0  0  0  0
  162.3403   42.7461  142.5436 O   0  0  0  0  0  0  0  0  0  0  0  0
  161.8223   41.9896  144.7341 C   0  0  2  0  0  0  0  0  0  0  0  0
  160.6092   41.6446  145.5161 N   0  0  0  0  0  0  0  0  0  0  0  0
  159.3915   41.3804  145.0025 C   0  0  0  0  0  0  0  0  0  0  0  0
  158.4842   41.0843  145.9743 N   0  0  0  0  0  0  0  0  0  0  0  0
  159.1284   41.1504  147.1502 C   0  0  0  0  0  0  0  0  0  0  0  0
  158.7697   40.9661  148.5796 C   0  0  0  0  0  0  0  0  0  0  0  0
  157.6178   40.6467  148.9447 O   0  0  0  0  0  0  0  0  0  0  0  0
  159.7375   41.1299  149.4830 N   0  0  0  0  0  0  0  0  0  0  0  0
  160.9909   41.4665  149.1415 C   0  0  0  0  0  0  0  0  0  0  0  0
  161.8813   41.6190  150.1331 N   0  0  0  0  0  0  0  0  0  0  0  0
  161.3928   41.6604  147.8636 N   0  0  0  0  0  0  0  0  0  0  0  0
  160.5238   41.5211  146.8404 C   0  0  0  0  0  0  0  0  0  0  0  0
  1  3  2  6  0  0  0
  1 32  1  0  0  0  0
  1  2  1  0  0  0  0
  1  4  1  0  0  0  0
  4  5  1  0  0  0  0
  6  5  1  6  0  0  0
  7  6  1  0  0  0  0
  8  6  1  0  0  0  0
  8 10  1  0  0  0  0
  8  9  1  1  0  0  0
 10 11  1  1  0  0  0
 12 13  1  6  0  0  0
 12  7  1  0  0  0  0
 12 10  1  0  0  0  0
 14 13  1  0  0  0  0
 15 16  1  0  0  0  0
 15 14  2  0  0  0  0
 16 23  2  0  0  0  0
 17 16  1  0  0  0  0
 17 19  1  0  0  0  0
 18 17  2  0  0  0  0
 19 20  2  0  0  0  0
 20 22  1  0  0  0  0
 20 21  1  0  0  0  0
 23 13  1  0  0  0  0
 23 22  1  0  0  0  0
 24 25  2  1  0  0  0
 24  9  1  0  0  0  0
 24 26  1  0  0  0  0
 27 28  1  0  0  0  0
 27 24  1  0  0  0  0
 29 30  1  1  0  0  0
 29 28  1  0  0  0  0
 31 32  1  6  0  0  0
 31 29  1  0  0  0  0
 33 34  1  6  0  0  0
 33 35  1  0  0  0  0
 33 31  1  0  0  0  0
 35 36  1  1  0  0  0
 35 30  1  0  0  0  0
 36 37  1  0  0  0  0
 38 37  2  0  0  0  0
 39 38  1  0  0  0  0
 40 41  2  0  0  0  0
 40 39  1  0  0  0  0
 42 40  1  0  0  0  0
 43 42  2  0  0  0  0
 43 45  1  0  0  0  0
 44 43  1  0  0  0  0
 45 46  1  0  0  0  0
 46 39  2  0  0  0  0
 46 36  1  0  0  0  0
M  END
>  <CHROM.1>
-24.08634481,157.93688048,159.37010190,44.98929951,145.94179470,-2.40425712
-0.33432729,2.48199987

>  <Name>
lig.pdb

>  <RI>
0

>  <Rbt.Current_Directory>
/home/itssahil/PROJECTS/Mol_Feturizer/New_Systems/rnas/4yb0

>  <Rbt.Executable>
rbdock ($Id: //depot/dev/client3/rdock/2013.1/src/exe/rbdock.cxx#4 $)

>  <Rbt.Library>
libRbt.so (2013.1, Build901 2013/11/27)

>  <Rbt.Parameter_File>
/export/apps/rDock/src/rDock_2013.1_src/data/scripts/dock_solv.prm

>  <Rbt.Receptor>
prm/pocket_docking_5.prm

>  <SCORE>
-22.9348

>  <SCORE.INTER>
-23.0482

>  <SCORE.INTER.CONST>
1

>  <SCORE.INTER.POLAR>
0

>  <SCORE.INTER.ROT>
2

>  <SCORE.INTER.SOLV>
18.0344

>  <SCORE.INTER.VDW>
-26.3102

>  <SCORE.INTER.norm>
-0.501048

>  <SCORE.INTRA>
0.113368

>  <SCORE.INTRA.DIHEDRAL>
0.157407

>  <SCORE.INTRA.DIHEDRAL.0>
4.74153

>  <SCORE.INTRA.POLAR>
0

>  <SCORE.INTRA.POLAR.0>
0

>  <SCORE.INTRA.REPUL>
0.00508511

>  <SCORE.INTRA.REPUL.0>
0

>  <SCORE.INTRA.SOLV>
0.284334

>  <SCORE.INTRA.SOLV.lig_0>
-60.4375

>  <SCORE.INTRA.VDW>
-0.132928

>  <SCORE.INTRA.VDW.0>
-1.83689

>  <SCORE.INTRA.norm>
0.00246452

>  <SCORE.RESTR>
0

>  <SCORE.RESTR.CAVITY>
0

>  <SCORE.RESTR.norm>
0

>  <SCORE.SYSTEM>
0

>  <SCORE.SYSTEM.CONST>
0

>  <SCORE.SYSTEM.DIHEDRAL>
0

>  <SCORE.SYSTEM.SOLV>
0

>  <SCORE.SYSTEM.norm>
0

>  <SCORE.heavy>
46

>  <SCORE.norm>
-0.498583

>  <RMSD>
4.840

$$$$
lig.pdb
 OpenBabel11021811523D
libRbt.so/2013.1/901 2013/11/27
 46 52  0  0  0  0  0  0  0  0999 V2000
  159.2162   47.9956  148.7048 P   0  0  2  0  0  0  0  0  0  0  0  0
  158.6636   48.7863  149.8706 O   0  0  0  0  0  0  0  0  0  0  0  0
  159.3012   48.7105  147.3808 O   0  0  0  0  0  0  0  0  0  0  0  0
  158.4009   46.6270  148.4879 O   0  0  0  0  0  0  0  0  0  0  0  0
  157.4457   46.1712  149.4371 C   0  0  0  0  0  0  0  0  0  0  0  0
  157.1290   44.7050  149.1931 C   0  0  1  0  0  0  0  0  0  0  0  0
  155.8673   44.6299  148.5447 O   0  0  0  0  0  0  0  0  0  0  0  0
  158.1117   43.9577  148.3006 C   0  0  1  0  0  0  0  0  0  0  0  0
  158.9497   43.1336  149.0976 O   0  0  0  0  0  0  0  0  0  0  0  0
  157.2216   43.0596  147.4712 C   0  0  1  0  0  0  0  0  0  0  0  0
  157.0466   41.8084  148.1389 O   0  0  0  0  0  0  0  0  0  0  0  0
  155.8793   43.7311  147.4462 C   0  0  2  0  0  0  0  0  0  0  0  0
  155.7489   44.5121  146.1933 N   0  0  0  0  0  0  0  0  0  0  0  0
  156.7229   45.2385  145.6181 C   0  0  0  0  0  0  0  0  0  0  0  0
  156.2683   45.8398  144.4924 N   0  0  0  0  0  0  0  0  0  0  0  0
  154.9770   45.5004  144.3312 C   0  0  0  0  0  0  0  0  0  0  0  0
  153.9075   45.7899  143.3472 C   0  0  0  0  0  0  0  0  0  0  0  0
  154.1364   46.5372  142.3657 O   0  0  0  0  0  0  0  0  0  0  0  0
  152.7018   45.2308  143.5474 N   0  0  0  0  0  0  0  0  0  0  0  0
  152.4608   44.4307  144.6032 C   0  0  0  0  0  0  0  0  0  0  0  0
  151.2301   43.8917  144.7515 N   0  0  0  0  0  0  0  0  0  0  0  0
  153.3902   44.1261  145.5372 N   0  0  0  0  0  0  0  0  0  0  0  0
  154.6433   44.6224  145.4571 C   0  0  0  0  0  0  0  0  0  0  0  0
  160.2846   42.4047  148.5295 P   0  0  2  0  0  0  0  0  0  0  0  0
  159.9500   41.6914  147.2420 O   0  0  0  0  0  0  0  0  0  0  0  0
  160.8852   41.6543  149.7034 O   0  0  0  0  0  0  0  0  0  0  0  0
  161.2314   43.6590  148.1559 O   0  0  0  0  0  0  0  0  0  0  0  0
  161.9658   44.3309  149.1784 C   0  0  0  0  0  0  0  0  0  0  0  0
  162.4268   45.7329  148.7675 C   0  0  1  0  0  0  0  0  0  0  0  0
  163.5024   45.6217  147.8330 O   0  0  0  0  0  0  0  0  0  0  0  0
  161.3558   46.5987  148.1077 C   0  0  1  0  0  0  0  0  0  0  0  0
  160.6942   47.4482  149.0441 O   0  0  0  0  0  0  0  0  0  0  0  0
  162.1621   47.3987  147.1018 C   0  0  1  0  0  0  0  0  0  0  0  0
  162.6973   48.5808  147.7035 O   0  0  0  0  0  0  0  0  0  0  0  0
  163.3305   46.5112  146.7265 C   0  0  2  0  0  0  0  0  0  0  0  0
  162.9821   45.7150  145.5236 N   0  0  0  0  0  0  0  0  0  0  0  0
  163.2398   44.4039  145.3469 C   0  0  0  0  0  0  0  0  0  0  0  0
  162.7863   43.9554  144.1434 N   0  0  0  0  0  0  0  0  0  0  0  0
  162.2128   44.9987  143.5230 C   0  0  0  0  0  0  0  0  0  0  0  0
  161.5438   45.2328  142.2179 C   0  0  0  0  0  0  0  0  0  0  0  0
  161.3758   44.3217  141.3790 O   0  0  0  0  0  0  0  0  0  0  0  0
  161.0944   46.4639  141.9688 N   0  0  0  0  0  0  0  0  0  0  0  0
  161.2447   47.4744  142.8390 C   0  0  0  0  0  0  0  0  0  0  0  0
  160.7669   48.6752  142.4797 N   0  0  0  0  0  0  0  0  0  0  0  0
  161.8499   47.3427  144.0426 N   0  0  0  0  0  0  0  0  0  0  0  0
  162.3474   46.1515  144.4359 C   0  0  0  0  0  0  0  0  0  0  0  0
  1  3  2  6  0  0  0
  1 32  1  0  0  0  0
  1  2  1  0  0  0  0
  1  4  1  0  0  0  0
  4  5  1  0  0  0  0
  6  5  1  6  0  0  0
  7  6  1  0  0  0  0
  8  6  1  0  0  0  0
  8 10  1  0  0  0  0
  8  9  1  1  0  0  0
 10 11  1  1  0  0  0
 12 13  1  6  0  0  0
 12  7  1  0  0  0  0
 12 10  1  0  0  0  0
 14 13  1  0  0  0  0
 15 16  1  0  0  0  0
 15 14  2  0  0  0  0
 16 23  2  0  0  0  0
 17 16  1  0  0  0  0
 17 19  1  0  0  0  0
 18 17  2  0  0  0  0
 19 20  2  0  0  0  0
 20 22  1  0  0  0  0
 20 21  1  0  0  0  0
 23 13  1  0  0  0  0
 23 22  1  0  0  0  0
 24 25  2  6  0  0  0
 24  9  1  0  0  0  0
 24 26  1  0  0  0  0
 27 28  1  0  0  0  0
 27 24  1  0  0  0  0
 29 30  1  6  0  0  0
 29 28  1  0  0  0  0
 31 32  1  1  0  0  0
 31 29  1  0  0  0  0
 33 34  1  1  0  0  0
 33 35  1  0  0  0  0
 33 31  1  0  0  0  0
 35 36  1  6  0  0  0
 35 30  1  0  0  0  0
 36 37  1  0  0  0  0
 38 37  2  0  0  0  0
 39 38  1  0  0  0  0
 40 41  2  0  0  0  0
 40 39  1  0  0  0  0
 42 40  1  0  0  0  0
 43 42  2  0  0  0  0
 43 45  1  0  0  0  0
 44 43  1  0  0  0  0
 45 46  1  0  0  0  0
 46 39  2  0  0  0  0
 46 36  1  0  0  0  0
M  END
>  <CHROM.1>
75.61413757,-21.76507746,159.01695712,45.32224609,146.47570121,0.12605673
0.18994688,1.88110565

>  <Name>
lig.pdb

>  <RI>
0

>  <Rbt.Current_Directory>
/home/itssahil/PROJECTS/Mol_Feturizer/New_Systems/rnas/4yb0

>  <Rbt.Executable>
rbdock ($Id: //depot/dev/client3/rdock/2013.1/src/exe/rbdock.cxx#4 $)

>  <Rbt.Library>
libRbt.so (2013.1, Build901 2013/11/27)

>  <Rbt.Parameter_File>
/export/apps/rDock/src/rDock_2013.1_src/data/scripts/dock_solv.prm

>  <Rbt.Receptor>
prm/pocket_docking_7.prm

>  <SCORE>
-24.6363

>  <SCORE.INTER>
-24.9431

>  <SCORE.INTER.CONST>
1

>  <SCORE.INTER.POLAR>
0

>  <SCORE.INTER.ROT>
2

>  <SCORE.INTER.SOLV>
16.5916

>  <SCORE.INTER.VDW>
-27.0926

>  <SCORE.INTER.norm>
-0.54224

>  <SCORE.INTRA>
0.30673

>  <SCORE.INTRA.DIHEDRAL>
0.0372462

>  <SCORE.INTRA.DIHEDRAL.0>
4.74153

>  <SCORE.INTRA.POLAR>
0

>  <SCORE.INTRA.POLAR.0>
0

>  <SCORE.INTRA.REPUL>
0.0015866

>  <SCORE.INTRA.REPUL.0>
0

>  <SCORE.INTRA.SOLV>
-0.122457

>  <SCORE.INTRA.SOLV.lig_0>
-60.4375

>  <SCORE.INTRA.VDW>
0.341403

>  <SCORE.INTRA.VDW.0>
-1.83689

>  <SCORE.INTRA.norm>
0.00666805

>  <SCORE.RESTR>
0

>  <SCORE.RESTR.CAVITY>
0

>  <SCORE.RESTR.norm>
0

>  <SCORE.SYSTEM>
0

>  <SCORE.SYSTEM.CONST>
0

>  <SCORE.SYSTEM.DIHEDRAL>
0

>  <SCORE.SYSTEM.SOLV>
0

>  <SCORE.SYSTEM.norm>
0

>  <SCORE.heavy>
46

>  <SCORE.norm>
-0.535572

>  <RMSD>
4.894

$$$$
lig.pdb
 OpenBabel11021811523D
libRbt.so/2013.1/901 2013/11/27
 46 52  0  0  0  0  0  0  0  0999 V2000
  161.1311   48.2546  148.5842 P   0  0  2  0  0  0  0  0  0  0  0  0
  161.1495   49.6061  149.2646 O   0  0  0  0  0  0  0  0  0  0  0  0
  161.3110   48.2468  147.0880 O   0  0  0  0  0  0  0  0  0  0  0  0
  159.7892   47.4417  148.9355 O   0  0  0  0  0  0  0  0  0  0  0  0
  158.8861   47.8929  149.9365 C   0  0  0  0  0  0  0  0  0  0  0  0
  157.9438   46.7679  150.3318 C   0  0  1  0  0  0  0  0  0  0  0  0
  156.6878   47.0090  149.7133 O   0  0  0  0  0  0  0  0  0  0  0  0
  158.3689   45.3697  149.9017 C   0  0  1  0  0  0  0  0  0  0  0  0
  158.8871   44.6629  151.0191 O   0  0  0  0  0  0  0  0  0  0  0  0
  157.0677   44.7155  149.4944 C   0  0  1  0  0  0  0  0  0  0  0  0
  156.4808   44.0695  150.6259 O   0  0  0  0  0  0  0  0  0  0  0  0
  156.1510   45.8409  149.1117 C   0  0  2  0  0  0  0  0  0  0  0  0
  156.1774   46.0110  147.6395 N   0  0  0  0  0  0  0  0  0  0  0  0
  157.1538   46.6124  146.9378 C   0  0  0  0  0  0  0  0  0  0  0  0
  156.8606   46.6121  145.6152 N   0  0  0  0  0  0  0  0  0  0  0  0
  155.6737   46.0011  145.4518 C   0  0  0  0  0  0  0  0  0  0  0  0
  154.7901   45.6633  144.3111 C   0  0  0  0  0  0  0  0  0  0  0  0
  155.1175   45.9800  143.1421 O   0  0  0  0  0  0  0  0  0  0  0  0
  153.6417   45.0172  144.5761 N   0  0  0  0  0  0  0  0  0  0  0  0
  153.2943   44.6810  145.8327 C   0  0  0  0  0  0  0  0  0  0  0  0
  152.1292   44.0273  146.0394 N   0  0  0  0  0  0  0  0  0  0  0  0
  154.0528   44.9588  146.9172 N   0  0  0  0  0  0  0  0  0  0  0  0
  155.2313   45.6058  146.7927 C   0  0  0  0  0  0  0  0  0  0  0  0
  159.6833   43.2537  150.8919 P   0  0  2  0  0  0  0  0  0  0  0  0
  158.8875   42.3115  150.0218 O   0  0  0  0  0  0  0  0  0  0  0  0
  160.0777   42.8654  152.3046 O   0  0  0  0  0  0  0  0  0  0  0  0
  161.0050   43.6764  150.0649 O   0  0  0  0  0  0  0  0  0  0  0  0
  162.1002   44.2989  150.7354 C   0  0  0  0  0  0  0  0  0  0  0  0
  163.0452   45.0414  149.7855 C   0  0  1  0  0  0  0  0  0  0  0  0
  163.8172   44.0909  149.0484 O   0  0  0  0  0  0  0  0  0  0  0  0
  162.3575   45.9416  148.7615 C   0  0  1  0  0  0  0  0  0  0  0  0
  162.2690   47.2953  149.2040 O   0  0  0  0  0  0  0  0  0  0  0  0
  163.2654   45.8080  147.5532 C   0  0  1  0  0  0  0  0  0  0  0  0
  164.3360   46.7545  147.6141 O   0  0  0  0  0  0  0  0  0  0  0  0
  163.8747   44.4256  147.6592 C   0  0  2  0  0  0  0  0  0  0  0  0
  163.0441   43.4580  146.9003 N   0  0  0  0  0  0  0  0  0  0  0  0
  162.4472   42.3633  147.4120 C   0  0  0  0  0  0  0  0  0  0  0  0
  161.7428   41.6808  146.4669 N   0  0  0  0  0  0  0  0  0  0  0  0
  161.8784   42.3512  145.3117 C   0  0  0  0  0  0  0  0  0  0  0  0
  161.4083   42.1810  143.9132 C   0  0  0  0  0  0  0  0  0  0  0  0
  160.6739   41.2316  143.5650 O   0  0  0  0  0  0  0  0  0  0  0  0
  161.7787   43.1030  143.0230 N   0  0  0  0  0  0  0  0  0  0  0  0
  162.5607   44.1438  143.3482 C   0  0  0  0  0  0  0  0  0  0  0  0
  162.8834   45.0033  142.3702 N   0  0  0  0  0  0  0  0  0  0  0  0
  163.0358   44.3626  144.5967 N   0  0  0  0  0  0  0  0  0  0  0  0
  162.7366   43.5166  145.6048 C   0  0  0  0  0  0  0  0  0  0  0  0
  1  3  2  6  0  0  0
  1 32  1  0  0  0  0
  1  2  1  0  0  0  0
  1  4  1  0  0  0  0
  4  5  1  0  0  0  0
  6  5  1  6  0  0  0
  7  6  1  0  0  0  0
  8  6  1  0  0  0  0
  8 10  1  0  0  0  0
  8  9  1  1  0  0  0
 10 11  1  1  0  0  0
 12 13  1  6  0  0  0
 12  7  1  0  0  0  0
 12 10  1  0  0  0  0
 14 13  1  0  0  0  0
 15 16  1  0  0  0  0
 15 14  2  0  0  0  0
 16 23  2  0  0  0  0
 17 16  1  0  0  0  0
 17 19  1  0  0  0  0
 18 17  2  0  0  0  0
 19 20  2  0  0  0  0
 20 22  1  0  0  0  0
 20 21  1  0  0  0  0
 23 13  1  0  0  0  0
 23 22  1  0  0  0  0
 24 25  2  6  0  0  0
 24  9  1  0  0  0  0
 24 26  1  0  0  0  0
 27 28  1  0  0  0  0
 27 24  1  0  0  0  0
 29 30  1  6  0  0  0
 29 28  1  0  0  0  0
 31 32  1  1  0  0  0
 31 29  1  0  0  0  0
 33 34  1  1  0  0  0
 33 35  1  0  0  0  0
 33 31  1  0  0  0  0
 35 36  1  6  0  0  0
 35 30  1  0  0  0  0
 36 37  1  0  0  0  0
 38 37  2  0  0  0  0
 39 38  1  0  0  0  0
 40 41  2  0  0  0  0
 40 39  1  0  0  0  0
 42 40  1  0  0  0  0
 43 42  2  0  0  0  0
 43 45  1  0  0  0  0
 44 43  1  0  0  0  0
 45 46  1  0  0  0  0
 46 39  2  0  0  0  0
 46 36  1  0  0  0  0
M  END
>  <CHROM.1>
37.85816726,-6.33993293,159.57990899,45.07026016,147.66756320,0.07931952
-0.12116143,1.28726489

>  <Name>
lig.pdb

>  <RI>
0

>  <Rbt.Current_Directory>
/home/itssahil/PROJECTS/Mol_Feturizer/New_Systems/rnas/4yb0

>  <Rbt.Executable>
rbdock ($Id: //depot/dev/client3/rdock/2013.1/src/exe/rbdock.cxx#4 $)

>  <Rbt.Library>
libRbt.so (2013.1, Build901 2013/11/27)

>  <Rbt.Parameter_File>
/export/apps/rDock/src/rDock_2013.1_src/data/scripts/dock_solv.prm

>  <Rbt.Receptor>
prm/pocket_docking_7.prm

>  <SCORE>
-24.6709

>  <SCORE.INTER>
-24.4441

>  <SCORE.INTER.CONST>
1

>  <SCORE.INTER.POLAR>
0

>  <SCORE.INTER.ROT>
2

>  <SCORE.INTER.SOLV>
19.6921

>  <SCORE.INTER.VDW>
-27.7934

>  <SCORE.INTER.norm>
-0.531393

>  <SCORE.INTRA>
-0.226838

>  <SCORE.INTRA.DIHEDRAL>
-0.00418169

>  <SCORE.INTRA.DIHEDRAL.0>
4.74153

>  <SCORE.INTRA.POLAR>
0

>  <SCORE.INTRA.POLAR.0>
0

>  <SCORE.INTRA.REPUL>
0

>  <SCORE.INTRA.REPUL.0>
0

>  <SCORE.INTRA.SOLV>
0.0212723

>  <SCORE.INTRA.SOLV.lig_0>
-60.4375

>  <SCORE.INTRA.VDW>
-0.235383

>  <SCORE.INTRA.VDW.0>
-1.83689

>  <SCORE.INTRA.norm>
-0.00493125

>  <SCORE.RESTR>
0

>  <SCORE.RESTR.CAVITY>
0

>  <SCORE.RESTR.norm>
0

>  <SCORE.SYSTEM>
0

>  <SCORE.SYSTEM.CONST>
0

>  <SCORE.SYSTEM.DIHEDRAL>
0

>  <SCORE.SYSTEM.SOLV>
0

>  <SCORE.SYSTEM.norm>
0

>  <SCORE.heavy>
46

>  <SCORE.norm>
-0.536325

>  <RMSD>
4.914

$$$$
lig.pdb
 OpenBabel11021811523D
libRbt.so/2013.1/901 2013/11/27
 46 52  0  0  0  0  0  0  0  0999 V2000
  161.3852   46.8070  147.8810 P   0  0  2  0  0  0  0  0  0  0  0  0
  162.6746   47.0171  148.6445 O   0  0  0  0  0  0  0  0  0  0  0  0
  160.2431   46.1811  148.6394 O   0  0  0  0  0  0  0  0  0  0  0  0
  161.6313   45.9510  146.5424 O   0  0  0  0  0  0  0  0  0  0  0  0
  162.9422   45.6552  146.0787 C   0  0  0  0  0  0  0  0  0  0  0  0
  162.8903   45.1969  144.6306 C   0  0  1  0  0  0  0  0  0  0  0  0
  163.0405   43.7845  144.6109 O   0  0  0  0  0  0  0  0  0  0  0  0
  161.5936   45.4977  143.8897 C   0  0  1  0  0  0  0  0  0  0  0  0
  161.7868   46.6010  143.0168 O   0  0  0  0  0  0  0  0  0  0  0  0
  161.3761   44.2627  143.0446 C   0  0  1  0  0  0  0  0  0  0  0  0
  162.0113   44.4316  141.7757 O   0  0  0  0  0  0  0  0  0  0  0  0
  162.1027   43.1553  143.7511 C   0  0  2  0  0  0  0  0  0  0  0  0
  161.1392   42.3912  144.5786 N   0  0  0  0  0  0  0  0  0  0  0  0
  160.0071   41.8181  144.1344 C   0  0  0  0  0  0  0  0  0  0  0  0
  159.3487   41.2113  145.1510 N   0  0  0  0  0  0  0  0  0  0  0  0
  160.0627   41.3919  146.2764 C   0  0  0  0  0  0  0  0  0  0  0  0
  159.9328   41.0070  147.7015 C   0  0  0  0  0  0  0  0  0  0  0  0
  158.9412   40.3437  148.0897 O   0  0  0  0  0  0  0  0  0  0  0  0
  160.9031   41.3936  148.5474 N   0  0  0  0  0  0  0  0  0  0  0  0
  161.9646   42.1068  148.1260 C   0  0  0  0  0  0  0  0  0  0  0  0
  162.9128   42.4641  149.0207 N   0  0  0  0  0  0  0  0  0  0  0  0
  162.1445   42.4908  146.8419 N   0  0  0  0  0  0  0  0  0  0  0  0
  161.2436   42.1698  145.8888 C   0  0  0  0  0  0  0  0  0  0  0  0
  160.5679   47.3746  142.2738 P   0  0  2  0  0  0  0  0  0  0  0  0
  159.6654   46.3599  141.6149 O   0  0  0  0  0  0  0  0  0  0  0  0
  161.2076   48.4893  141.4675 O   0  0  0  0  0  0  0  0  0  0  0  0
  159.7545   48.0118  143.5155 O   0  0  0  0  0  0  0  0  0  0  0  0
  160.2155   49.2134  144.1320 C   0  0  0  0  0  0  0  0  0  0  0  0
  159.6401   49.4304  145.5350 C   0  0  1  0  0  0  0  0  0  0  0  0
  158.2668   49.8118  145.4287 O   0  0  0  0  0  0  0  0  0  0  0  0
  159.6901   48.2095  146.4508 C   0  0  1  0  0  0  0  0  0  0  0  0
  160.8486   48.2051  147.2839 O   0  0  0  0  0  0  0  0  0  0  0  0
  158.4187   48.3640  147.2643 C   0  0  1  0  0  0  0  0  0  0  0  0
  158.6452   49.1892  148.4104 O   0  0  0  0  0  0  0  0  0  0  0  0
  157.4501   49.0977  146.3605 C   0  0  2  0  0  0  0  0  0  0  0  0
  156.6245   48.1145  145.6163 N   0  0  0  0  0  0  0  0  0  0  0  0
  156.3051   48.1859  144.3088 C   0  0  0  0  0  0  0  0  0  0  0  0
  155.5450   47.1269  143.9136 N   0  0  0  0  0  0  0  0  0  0  0  0
  155.3704   46.3423  144.9888 C   0  0  0  0  0  0  0  0  0  0  0  0
  154.6608   45.0712  145.2830 C   0  0  0  0  0  0  0  0  0  0  0  0
  154.0355   44.4357  144.4071 O   0  0  0  0  0  0  0  0  0  0  0  0
  154.7304   44.6019  146.5298 N   0  0  0  0  0  0  0  0  0  0  0  0
  155.3939   45.2434  147.5040 C   0  0  0  0  0  0  0  0  0  0  0  0
  155.3869   44.6884  148.7251 N   0  0  0  0  0  0  0  0  0  0  0  0
  156.0568   46.4087  147.3170 N   0  0  0  0  0  0  0  0  0  0  0  0
  156.0813   46.9994  146.1038 C   0  0  0  0  0  0  0  0  0  0  0  0
  1  3  2  1  0  0  0
  1 32  1  0  0  0  0
  1  2  1  0  0  0  0
  1  4  1  0  0  0  0
  4  5  1  0  0  0  0
  6  5  1  1  0  0  0
  7  6  1  0  0  0  0
  8  6  1  0  0  0  0
  8 10  1  0  0  0  0
  8  9  1  6  0  0  0
 10 11  1  6  0  0  0
 12 13  1  1  0  0  0
 12  7  1  0  0  0  0
 12 10  1  0  0  0  0
 14 13  1  0  0  0  0
 15 16  1  0  0  0  0
 15 14  2  0  0  0  0
 16 23  2  0  0  0  0
 17 16  1  0  0  0  0
 17 19  1  0  0  0  0
 18 17  2  0  0  0  0
 19 20  2  0  0  0  0
 20 22  1  0  0  0  0
 20 21  1  0  0  0  0
 23 13  1  0  0  0  0
 23 22  1  0  0  0  0
 24 25  2  6  0  0  0
 24  9  1  0  0  0  0
 24 26  1  0  0  0  0
 27 28  1  0  0  0  0
 27 24  1  0  0  0  0
 29 30  1  6  0  0  0
 29 28  1  0  0  0  0
 31 32  1  1  0  0  0
 31 29  1  0  0  0  0
 33 34  1  1  0  0  0
 33 35  1  0  0  0  0
 33 31  1  0  0  0  0
 35 36  1  6  0  0  0
 35 30  1  0  0  0  0
 36 37  1  0  0  0  0
 38 37  2  0  0  0  0
 39 38  1  0  0  0  0
 40 41  2  0  0  0  0
 40 39  1  0  0  0  0
 42 40  1  0  0  0  0
 43 42  2  0  0  0  0
 43 45  1  0  0  0  0
 44 43  1  0  0  0  0
 45 46  1  0  0  0  0
 46 39  2  0  0  0  0
 46 36  1  0  0  0  0
M  END
>  <CHROM.1>
170.36150643,-22.43702259,159.62565304,45.62790530,145.62437703,-0.83870285
0.35368374,-0.50124053

>  <Name>
lig.pdb

>  <RI>
0

>  <Rbt.Current_Directory>
/home/itssahil/PROJECTS/Mol_Feturizer/New_Systems/rnas/4yb0

>  <Rbt.Executable>
rbdock ($Id: //depot/dev/client3/rdock/2013.1/src/exe/rbdock.cxx#4 $)

>  <Rbt.Library>
libRbt.so (2013.1, Build901 2013/11/27)

>  <Rbt.Parameter_File>
/export/apps/rDock/src/rDock_2013.1_src/data/scripts/dock_solv.prm

>  <Rbt.Receptor>
prm/pocket_docking_7.prm

>  <SCORE>
-21.7709

>  <SCORE.INTER>
-21.532

>  <SCORE.INTER.CONST>
1

>  <SCORE.INTER.POLAR>
0

>  <SCORE.INTER.ROT>
2

>  <SCORE.INTER.SOLV>
17.2339

>  <SCORE.INTER.VDW>
-25.0327

>  <SCORE.INTER.norm>
-0.468087

>  <SCORE.INTRA>
-0.23887

>  <SCORE.INTRA.DIHEDRAL>
-0.0189227

>  <SCORE.INTRA.DIHEDRAL.0>
4.74153

>  <SCORE.INTRA.POLAR>
0

>  <SCORE.INTRA.POLAR.0>
0

>  <SCORE.INTRA.REPUL>
0.00266449

>  <SCORE.INTRA.REPUL.0>
0

>  <SCORE.INTRA.SOLV>
0.447157

>  <SCORE.INTRA.SOLV.lig_0>
-60.4375

>  <SCORE.INTRA.VDW>
-0.466309

>  <SCORE.INTRA.VDW.0>
-1.83689

>  <SCORE.INTRA.norm>
-0.00519282

>  <SCORE.RESTR>
0

>  <SCORE.RESTR.CAVITY>
0

>  <SCORE.RESTR.norm>
0

>  <SCORE.SYSTEM>
0

>  <SCORE.SYSTEM.CONST>
0

>  <SCORE.SYSTEM.DIHEDRAL>
0

>  <SCORE.SYSTEM.SOLV>
0

>  <SCORE.SYSTEM.norm>
0

>  <SCORE.heavy>
46

>  <SCORE.norm>
-0.47328

>  <RMSD>
4.925

$$$$
lig.pdb
 OpenBabel11021811523D
libRbt.so/2013.1/901 2013/11/27
 46 52  0  0  0  0  0  0  0  0999 V2000
  160.7239   45.2158  142.5074 P   0  0  2  0  0  0  0  0  0  0  0  0
  161.4351   46.0499  141.4644 O   0  0  0  0  0  0  0  0  0  0  0  0
  159.8662   44.0849  142.0011 O   0  0  0  0  0  0  0  0  0  0  0  0
  159.8284   46.1329  143.4781 O   0  0  0  0  0  0  0  0  0  0  0  0
  159.9143   47.5517  143.4496 C   0  0  0  0  0  0  0  0  0  0  0  0
  159.2814   48.1360  144.7017 C   0  0  1  0  0  0  0  0  0  0  0  0
  158.0028   48.6460  144.3510 O   0  0  0  0  0  0  0  0  0  0  0  0
  159.0498   47.1543  145.8434 C   0  0  1  0  0  0  0  0  0  0  0  0
  160.0345   47.3487  146.8480 O   0  0  0  0  0  0  0  0  0  0  0  0
  157.7128   47.5792  146.4077 C   0  0  1  0  0  0  0  0  0  0  0  0
  157.9128   48.5542  147.4331 O   0  0  0  0  0  0  0  0  0  0  0  0
  156.9996   48.2711  145.2825 C   0  0  2  0  0  0  0  0  0  0  0  0
  156.0788   47.3123  144.6271 N   0  0  0  0  0  0  0  0  0  0  0  0
  155.7649   47.2961  143.3200 C   0  0  0  0  0  0  0  0  0  0  0  0
  154.8844   46.3019  143.0528 N   0  0  0  0  0  0  0  0  0  0  0  0
  154.6194   45.6595  144.2044 C   0  0  0  0  0  0  0  0  0  0  0  0
  153.7762   44.5154  144.6239 C   0  0  0  0  0  0  0  0  0  0  0  0
  153.0739   43.9051  143.7823 O   0  0  0  0  0  0  0  0  0  0  0  0
  153.7923   44.1661  145.9217 N   0  0  0  0  0  0  0  0  0  0  0  0
  154.5466   44.8254  146.8213 C   0  0  0  0  0  0  0  0  0  0  0  0
  154.5271   44.4268  148.1128 N   0  0  0  0  0  0  0  0  0  0  0  0
  155.3373   45.8763  146.5063 N   0  0  0  0  0  0  0  0  0  0  0  0
  155.4136   46.3317  145.2375 C   0  0  0  0  0  0  0  0  0  0  0  0
  160.2711   46.3144  148.0769 P   0  0  2  0  0  0  0  0  0  0  0  0
  158.9436   46.0006  148.7232 O   0  0  0  0  0  0  0  0  0  0  0  0
  161.4190   46.8834  148.8895 O   0  0  0  0  0  0  0  0  0  0  0  0
  160.7660   44.9788  147.3148 O   0  0  0  0  0  0  0  0  0  0  0  0
  162.1208   44.8621  146.8822 C   0  0  0  0  0  0  0  0  0  0  0  0
  162.3192   43.7929  145.8032 C   0  0  1  0  0  0  0  0  0  0  0  0
  162.2201   42.4971  146.3981 O   0  0  0  0  0  0  0  0  0  0  0  0
  161.3083   43.8325  144.6594 C   0  0  1  0  0  0  0  0  0  0  0  0
  161.7851   44.5803  143.5415 O   0  0  0  0  0  0  0  0  0  0  0  0
  161.1477   42.3626  144.3195 C   0  0  1  0  0  0  0  0  0  0  0  0
  162.1421   41.9461  143.3796 O   0  0  0  0  0  0  0  0  0  0  0  0
  161.4070   41.6203  145.6139 C   0  0  2  0  0  0  0  0  0  0  0  0
  160.1229   41.3976  146.3236 N   0  0  0  0  0  0  0  0  0  0  0  0
  158.8973   41.4441  145.7647 C   0  0  0  0  0  0  0  0  0  0  0  0
  157.9155   41.1839  146.6723 N   0  0  0  0  0  0  0  0  0  0  0  0
  158.5167   40.9555  147.8507 C   0  0  0  0  0  0  0  0  0  0  0  0
  158.0773   40.6343  149.2325 C   0  0  0  0  0  0  0  0  0  0  0  0
  156.8736   40.4861  149.5346 O   0  0  0  0  0  0  0  0  0  0  0  0
  159.0244   40.4801  150.1593 N   0  0  0  0  0  0  0  0  0  0  0  0
  160.3301   40.6225  149.8842 C   0  0  0  0  0  0  0  0  0  0  0  0
  161.1958   40.4590  150.8956 N   0  0  0  0  0  0  0  0  0  0  0  0
  160.8080   40.9228  148.6538 N   0  0  0  0  0  0  0  0  0  0  0  0
  159.9670   41.0998  147.6133 C   0  0  0  0  0  0  0  0  0  0  0  0
  1  3  2  6  0  0  0
  1 32  1  0  0  0  0
  1  2  1  0  0  0  0
  1  4  1  0  0  0  0
  4  5  1  0  0  0  0
  6  5  1  6  0  0  0
  7  6  1  0  0  0  0
  8  6  1  0  0  0  0
  8 10  1  0  0  0  0
  8  9  1  1  0  0  0
 10 11  1  1  0  0  0
 12 13  1  6  0  0  0
 12  7  1  0  0  0  0
 12 10  1  0  0  0  0
 14 13  1  0  0  0  0
 15 16  1  0  0  0  0
 15 14  2  0  0  0  0
 16 23  2  0  0  0  0
 17 16  1  0  0  0  0
 17 19  1  0  0  0  0
 18 17  2  0  0  0  0
 19 20  2  0  0  0  0
 20 22  1  0  0  0  0
 20 21  1  0  0  0  0
 23 13  1  0  0  0  0
 23 22  1  0  0  0  0
 24 25  2  1  0  0  0
 24  9  1  0  0  0  0
 24 26  1  0  0  0  0
 27 28  1  0  0  0  0
 27 24  1  0  0  0  0
 29 30  1  1  0  0  0
 29 28  1  0  0  0  0
 31 32  1  6  0  0  0
 31 29  1  0  0  0  0
 33 34  1  6  0  0  0
 33 35  1  0  0  0  0
 33 31  1  0  0  0  0
 35 36  1  1  0  0  0
 35 30  1  0  0  0  0
 36 37  1  0  0  0  0
 38 37  2  0  0  0  0
 39 38  1  0  0  0  0
 40 41  2  0  0  0  0
 40 39  1  0  0  0  0
 42 40  1  0  0  0  0
 43 42  2  0  0  0  0
 43 45  1  0  0  0  0
 44 43  1  0  0  0  0
 45 46  1  0  0  0  0
 46 39  2  0  0  0  0
 46 36  1  0  0  0  0
M  END
>  <CHROM.1>
-31.53784367,134.14830944,158.85759315,44.56633993,145.93805838,-2.09459541
-0.21021301,2.40853548

>  <Name>
lig.pdb

>  <RI>
0

>  <Rbt.Current_Directory>
/home/itssahil/PROJECTS/Mol_Feturizer/New_Systems/rnas/4yb0

>  <Rbt.Executable>
rbdock ($Id: //depot/dev/client3/rdock/2013.1/src/exe/rbdock.cxx#4 $)

>  <Rbt.Library>
libRbt.so (2013.1, Build901 2013/11/27)

>  <Rbt.Parameter_File>
/export/apps/rDock/src/rDock_2013.1_src/data/scripts/dock_solv.prm

>  <Rbt.Receptor>
prm/pocket_docking_4.prm

>  <SCORE>
-22.8061

>  <SCORE.INTER>
-24.4475

>  <SCORE.INTER.CONST>
1

>  <SCORE.INTER.POLAR>
0

>  <SCORE.INTER.ROT>
2

>  <SCORE.INTER.SOLV>
20.0056

>  <SCORE.INTER.VDW>
-27.9002

>  <SCORE.INTER.norm>
-0.531467

>  <SCORE.INTRA>
1.32238

>  <SCORE.INTRA.DIHEDRAL>
0.143594

>  <SCORE.INTRA.DIHEDRAL.0>
4.74153

>  <SCORE.INTRA.POLAR>
0

>  <SCORE.INTRA.POLAR.0>
0

>  <SCORE.INTRA.REPUL>
0.0446353

>  <SCORE.INTRA.REPUL.0>
0

>  <SCORE.INTRA.SOLV>
0.0722448

>  <SCORE.INTRA.SOLV.lig_0>
-60.4375

>  <SCORE.INTRA.VDW>
0.991285

>  <SCORE.INTRA.VDW.0>
-1.83689

>  <SCORE.INTRA.norm>
0.0287474

>  <SCORE.RESTR>
0.319001

>  <SCORE.RESTR.CAVITY>
0.319001

>  <SCORE.RESTR.norm>
0.0069348

>  <SCORE.SYSTEM>
0

>  <SCORE.SYSTEM.CONST>
0

>  <SCORE.SYSTEM.DIHEDRAL>
0

>  <SCORE.SYSTEM.SOLV>
0

>  <SCORE.SYSTEM.norm>
0

>  <SCORE.heavy>
46

>  <SCORE.norm>
-0.495785

>  <RMSD>
4.928

$$$$
lig.pdb
 OpenBabel11021811523D
libRbt.so/2013.1/901 2013/11/27
 46 52  0  0  0  0  0  0  0  0999 V2000
  160.8978   44.6219  142.6201 P   0  0  2  0  0  0  0  0  0  0  0  0
  161.6490   45.3077  141.4999 O   0  0  0  0  0  0  0  0  0  0  0  0
  159.9272   43.5400  142.2221 O   0  0  0  0  0  0  0  0  0  0  0  0
  160.1179   45.6866  143.5383 O   0  0  0  0  0  0  0  0  0  0  0  0
  160.3296   47.0855  143.3993 C   0  0  0  0  0  0  0  0  0  0  0  0
  159.7899   47.8167  144.6174 C   0  0  1  0  0  0  0  0  0  0  0  0
  158.5521   48.4143  144.2586 O   0  0  0  0  0  0  0  0  0  0  0  0
  159.5059   46.9477  145.8360 C   0  0  1  0  0  0  0  0  0  0  0  0
  160.5339   47.1249  146.7995 O   0  0  0  0  0  0  0  0  0  0  0  0
  158.2299   47.5341  146.3973 C   0  0  1  0  0  0  0  0  0  0  0  0
  158.5475   48.5599  147.3400 O   0  0  0  0  0  0  0  0  0  0  0  0
  157.5480   48.2030  145.2393 C   0  0  2  0  0  0  0  0  0  0  0  0
  156.5255   47.2867  144.6811 N   0  0  0  0  0  0  0  0  0  0  0  0
  156.1523   47.2218  143.3911 C   0  0  0  0  0  0  0  0  0  0  0  0
  155.1849   46.2890  143.2205 N   0  0  0  0  0  0  0  0  0  0  0  0
  154.9225   45.7370  144.4186 C   0  0  0  0  0  0  0  0  0  0  0  0
  154.0114   44.6912  144.9404 C   0  0  0  0  0  0  0  0  0  0  0  0
  153.2257   44.0933  144.1664 O   0  0  0  0  0  0  0  0  0  0  0  0
  154.0587   44.4162  146.2551 N   0  0  0  0  0  0  0  0  0  0  0  0
  154.9028   45.0620  147.0819 C   0  0  0  0  0  0  0  0  0  0  0  0
  154.9105   44.7405  148.3948 N   0  0  0  0  0  0  0  0  0  0  0  0
  155.7590   46.0252  146.6721 N   0  0  0  0  0  0  0  0  0  0  0  0
  155.8133   46.3999  145.3761 C   0  0  0  0  0  0  0  0  0  0  0  0
  160.7139   46.1673  148.0981 P   0  0  2  0  0  0  0  0  0  0  0  0
  159.3838   46.0253  148.7975 O   0  0  0  0  0  0  0  0  0  0  0  0
  161.9322   46.6874  148.8377 O   0  0  0  0  0  0  0  0  0  0  0  0
  161.0638   44.7392  147.4292 O   0  0  0  0  0  0  0  0  0  0  0  0
  162.3890   44.4670  146.9752 C   0  0  0  0  0  0  0  0  0  0  0  0
  162.4580   43.3071  145.9770 C   0  0  1  0  0  0  0  0  0  0  0  0
  162.2613   42.0735  146.6715 O   0  0  0  0  0  0  0  0  0  0  0  0
  161.4206   43.3543  144.8574 C   0  0  1  0  0  0  0  0  0  0  0  0
  161.9285   43.9702  143.6747 O   0  0  0  0  0  0  0  0  0  0  0  0
  161.1187   41.8841  144.6350 C   0  0  1  0  0  0  0  0  0  0  0  0
  162.0429   41.3097  143.7066 O   0  0  0  0  0  0  0  0  0  0  0  0
  161.3494   41.2192  145.9759 C   0  0  2  0  0  0  0  0  0  0  0  0
  160.0726   41.1684  146.7305 N   0  0  0  0  0  0  0  0  0  0  0  0
  158.9809   41.9178  146.4797 C   0  0  0  0  0  0  0  0  0  0  0  0
  157.9617   41.6327  147.3372 N   0  0  0  0  0  0  0  0  0  0  0  0
  158.3979   40.6686  148.1633 C   0  0  0  0  0  0  0  0  0  0  0  0
  157.8415   39.9110  149.3132 C   0  0  0  0  0  0  0  0  0  0  0  0
  156.6756   40.0855  149.7283 O   0  0  0  0  0  0  0  0  0  0  0  0
  158.6286   39.0008  149.8891 N   0  0  0  0  0  0  0  0  0  0  0  0
  159.8849   38.7719  149.4769 C   0  0  0  0  0  0  0  0  0  0  0  0
  160.5923   37.8433  150.1376 N   0  0  0  0  0  0  0  0  0  0  0  0
  160.4653   39.4263  148.4438 N   0  0  0  0  0  0  0  0  0  0  0  0
  159.7866   40.3706  147.7591 C   0  0  0  0  0  0  0  0  0  0  0  0
  1  3  2  6  0  0  0
  1 32  1  0  0  0  0
  1  2  1  0  0  0  0
  1  4  1  0  0  0  0
  4  5  1  0  0  0  0
  6  5  1  6  0  0  0
  7  6  1  0  0  0  0
  8  6  1  0  0  0  0
  8 10  1  0  0  0  0
  8  9  1  1  0  0  0
 10 11  1  1  0  0  0
 12 13  1  6  0  0  0
 12  7  1  0  0  0  0
 12 10  1  0  0  0  0
 14 13  1  0  0  0  0
 15 16  1  0  0  0  0
 15 14  2  0  0  0  0
 16 23  2  0  0  0  0
 17 16  1  0  0  0  0
 17 19  1  0  0  0  0
 18 17  2  0  0  0  0
 19 20  2  0  0  0  0
 20 22  1  0  0  0  0
 20 21  1  0  0  0  0
 23 13  1  0  0  0  0
 23 22  1  0  0  0  0
 24 25  2  1  0  0  0
 24  9  1  0  0  0  0
 24 26  1  0  0  0  0
 27 28  1  0  0  0  0
 27 24  1  0  0  0  0
 29 30  1  1  0  0  0
 29 28  1  0  0  0  0
 31 32  1  6  0  0  0
 31 29  1  0  0  0  0
 33 34  1  6  0  0  0
 33 35  1  0  0  0  0
 33 31  1  0  0  0  0
 35 36  1  1  0  0  0
 35 30  1  0  0  0  0
 36 37  1  0  0  0  0
 38 37  2  0  0  0  0
 39 38  1  0  0  0  0
 40 41  2  0  0  0  0
 40 39  1  0  0  0  0
 42 40  1  0  0  0  0
 43 42  2  0  0  0  0
 43 45  1  0  0  0  0
 44 43  1  0  0  0  0
 45 46  1  0  0  0  0
 46 39  2  0  0  0  0
 46 36  1  0  0  0  0
M  END
>  <CHROM.1>
-33.00165967,96.50932698,159.04924830,44.21946304,146.04933905,-1.88266689
-0.25477604,2.55880878

>  <Name>
lig.pdb

>  <RI>
0

>  <Rbt.Current_Directory>
/home/itssahil/PROJECTS/Mol_Feturizer/New_Systems/rnas/4yb0

>  <Rbt.Executable>
rbdock ($Id: //depot/dev/client3/rdock/2013.1/src/exe/rbdock.cxx#4 $)

>  <Rbt.Library>
libRbt.so (2013.1, Build901 2013/11/27)

>  <Rbt.Parameter_File>
/export/apps/rDock/src/rDock_2013.1_src/data/scripts/dock_solv.prm

>  <Rbt.Receptor>
prm/pocket_docking_6.prm

>  <SCORE>
-25.252

>  <SCORE.INTER>
-26.3438

>  <SCORE.INTER.CONST>
1

>  <SCORE.INTER.POLAR>
0

>  <SCORE.INTER.ROT>
2

>  <SCORE.INTER.SOLV>
20.2257

>  <SCORE.INTER.VDW>
-29.2377

>  <SCORE.INTER.norm>
-0.57269

>  <SCORE.INTRA>
1.09177

>  <SCORE.INTRA.DIHEDRAL>
0.0466841

>  <SCORE.INTRA.DIHEDRAL.0>
4.74153

>  <SCORE.INTRA.POLAR>
0

>  <SCORE.INTRA.POLAR.0>
0

>  <SCORE.INTRA.REPUL>
0.0160985

>  <SCORE.INTRA.REPUL.0>
0

>  <SCORE.INTRA.SOLV>
-0.0187179

>  <SCORE.INTRA.SOLV.lig_0>
-60.4375

>  <SCORE.INTRA.VDW>
0.997294

>  <SCORE.INTRA.VDW.0>
-1.83689

>  <SCORE.INTRA.norm>
0.0237341

>  <SCORE.RESTR>
0

>  <SCORE.RESTR.CAVITY>
0

>  <SCORE.RESTR.norm>
0

>  <SCORE.SYSTEM>
0

>  <SCORE.SYSTEM.CONST>
0

>  <SCORE.SYSTEM.DIHEDRAL>
0

>  <SCORE.SYSTEM.SOLV>
0

>  <SCORE.SYSTEM.norm>
0

>  <SCORE.heavy>
46

>  <SCORE.norm>
-0.548956

>  <RMSD>
5.077

$$$$
lig.pdb
 OpenBabel11021811523D
libRbt.so/2013.1/901 2013/11/27
 46 52  0  0  0  0  0  0  0  0999 V2000
  160.8114   45.0451  142.4990 P   0  0  2  0  0  0  0  0  0  0  0  0
  161.5009   45.8331  141.4066 O   0  0  0  0  0  0  0  0  0  0  0  0
  159.8860   43.9409  142.0569 O   0  0  0  0  0  0  0  0  0  0  0  0
  160.0023   46.0127  143.4960 O   0  0  0  0  0  0  0  0  0  0  0  0
  160.1415   47.4263  143.4372 C   0  0  0  0  0  0  0  0  0  0  0  0
  159.5958   48.0558  144.7083 C   0  0  1  0  0  0  0  0  0  0  0  0
  158.3219   48.6103  144.4123 O   0  0  0  0  0  0  0  0  0  0  0  0
  159.3843   47.1029  145.8779 C   0  0  1  0  0  0  0  0  0  0  0  0
  160.4251   47.2746  146.8285 O   0  0  0  0  0  0  0  0  0  0  0  0
  158.0949   47.5898  146.5002 C   0  0  1  0  0  0  0  0  0  0  0  0
  158.3841   48.5727  147.4963 O   0  0  0  0  0  0  0  0  0  0  0  0
  157.3532   48.2908  145.3994 C   0  0  2  0  0  0  0  0  0  0  0  0
  156.3640   47.3586  144.8084 N   0  0  0  0  0  0  0  0  0  0  0  0
  156.0147   47.3059  143.5113 C   0  0  0  0  0  0  0  0  0  0  0  0
  155.0742   46.3521  143.3086 N   0  0  0  0  0  0  0  0  0  0  0  0
  154.8055   45.7738  144.4927 C   0  0  0  0  0  0  0  0  0  0  0  0
  153.9123   44.6970  144.9814 C   0  0  0  0  0  0  0  0  0  0  0  0
  153.1554   44.0926  144.1842 O   0  0  0  0  0  0  0  0  0  0  0  0
  153.9441   44.4014  146.2922 N   0  0  0  0  0  0  0  0  0  0  0  0
  154.7572   45.0542  147.1440 C   0  0  0  0  0  0  0  0  0  0  0  0
  154.7506   44.7112  148.4515 N   0  0  0  0  0  0  0  0  0  0  0  0
  155.5956   46.0453  146.7649 N   0  0  0  0  0  0  0  0  0  0  0  0
  155.6626   46.4428  145.4763 C   0  0  0  0  0  0  0  0  0  0  0  0
  160.6832   46.2520  148.0629 P   0  0  2  0  0  0  0  0  0  0  0  0
  159.3789   46.0018  148.7802 O   0  0  0  0  0  0  0  0  0  0  0  0
  161.8919   46.7884  148.8068 O   0  0  0  0  0  0  0  0  0  0  0  0
  161.0868   44.8856  147.3018 O   0  0  0  0  0  0  0  0  0  0  0  0
  162.4126   44.7082  146.8045 C   0  0  0  0  0  0  0  0  0  0  0  0
  162.5146   43.6143  145.7369 C   0  0  1  0  0  0  0  0  0  0  0  0
  162.3955   42.3335  146.3597 O   0  0  0  0  0  0  0  0  0  0  0  0
  161.4495   43.6752  144.6442 C   0  0  1  0  0  0  0  0  0  0  0  0
  161.8980   44.3850  143.4904 O   0  0  0  0  0  0  0  0  0  0  0  0
  161.2152   42.2074  144.3399 C   0  0  1  0  0  0  0  0  0  0  0  0
  162.1440   41.7365  143.3594 O   0  0  0  0  0  0  0  0  0  0  0  0
  161.5104   41.4768  145.6332 C   0  0  2  0  0  0  0  0  0  0  0  0
  160.2562   41.3169  146.4100 N   0  0  0  0  0  0  0  0  0  0  0  0
  159.0090   41.3219  145.8991 C   0  0  0  0  0  0  0  0  0  0  0  0
  158.0647   41.1397  146.8637 N   0  0  0  0  0  0  0  0  0  0  0  0
  158.7131   41.0058  148.0316 C   0  0  0  0  0  0  0  0  0  0  0  0
  158.3300   40.7995  149.4516 C   0  0  0  0  0  0  0  0  0  0  0  0
  157.1396   40.6805  149.8130 O   0  0  0  0  0  0  0  0  0  0  0  0
  159.3139   40.7180  150.3488 N   0  0  0  0  0  0  0  0  0  0  0  0
  160.6074   40.8332  150.0105 C   0  0  0  0  0  0  0  0  0  0  0  0
  161.5134   40.7496  150.9961 N   0  0  0  0  0  0  0  0  0  0  0  0
  161.0351   41.0308  148.7415 N   0  0  0  0  0  0  0  0  0  0  0  0
  160.1526   41.1254  147.7249 C   0  0  0  0  0  0  0  0  0  0  0  0
  1  3  2  6  0  0  0
  1 32  1  0  0  0  0
  1  2  1  0  0  0  0
  1  4  1  0  0  0  0
  4  5  1  0  0  0  0
  6  5  1  6  0  0  0
  7  6  1  0  0  0  0
  8  6  1  0  0  0  0
  8 10  1  0  0  0  0
  8  9  1  1  0  0  0
 10 11  1  1  0  0  0
 12 13  1  6  0  0  0
 12  7  1  0  0  0  0
 12 10  1  0  0  0  0
 14 13  1  0  0  0  0
 15 16  1  0  0  0  0
 15 14  2  0  0  0  0
 16 23  2  0  0  0  0
 17 16  1  0  0  0  0
 17 19  1  0  0  0  0
 18 17  2  0  0  0  0
 19 20  2  0  0  0  0
 20 22  1  0  0  0  0
 20 21  1  0  0  0  0
 23 13  1  0  0  0  0
 23 22  1  0  0  0  0
 24 25  2  1  0  0  0
 24  9  1  0  0  0  0
 24 26  1  0  0  0  0
 27 28  1  0  0  0  0
 27 24  1  0  0  0  0
 29 30  1  1  0  0  0
 29 28  1  0  0  0  0
 31 32  1  6  0  0  0
 31 29  1  0  0  0  0
 33 34  1  6  0  0  0
 33 35  1  0  0  0  0
 33 31  1  0  0  0  0
 35 36  1  1  0  0  0
 35 30  1  0  0  0  0
 36 37  1  0  0  0  0
 38 37  2  0  0  0  0
 39 38  1  0  0  0  0
 40 41  2  0  0  0  0
 40 39  1  0  0  0  0
 42 40  1  0  0  0  0
 43 42  2  0  0  0  0
 43 45  1  0  0  0  0
 44 43  1  0  0  0  0
 45 46  1  0  0  0  0
 46 39  2  0  0  0  0
 46 36  1  0  0  0  0
M  END
>  <CHROM.1>
-29.33902954,138.43670581,159.08765152,44.55739033,146.03574550,-2.14304180
-0.28167060,2.36598786

>  <Name>
lig.pdb

>  <RI>
0

>  <Rbt.Current_Directory>
/home/itssahil/PROJECTS/Mol_Feturizer/New_Systems/rnas/4yb0

>  <Rbt.Executable>
rbdock ($Id: //depot/dev/client3/rdock/2013.1/src/exe/rbdock.cxx#4 $)

>  <Rbt.Library>
libRbt.so (2013.1, Build901 2013/11/27)

>  <Rbt.Parameter_File>
/export/apps/rDock/src/rDock_2013.1_src/data/scripts/dock_solv.prm

>  <Rbt.Receptor>
prm/pocket_docking_7.prm

>  <SCORE>
-24.0878

>  <SCORE.INTER>
-25.2522

>  <SCORE.INTER.CONST>
1

>  <SCORE.INTER.POLAR>
0

>  <SCORE.INTER.ROT>
2

>  <SCORE.INTER.SOLV>
19.2341

>  <SCORE.INTER.VDW>
-28.1795

>  <SCORE.INTER.norm>
-0.54896

>  <SCORE.INTRA>
1.16435

>  <SCORE.INTRA.DIHEDRAL>
0.152728

>  <SCORE.INTRA.DIHEDRAL.0>
4.74153

>  <SCORE.INTRA.POLAR>
0

>  <SCORE.INTRA.POLAR.0>
0

>  <SCORE.INTRA.REPUL>
0.0497556

>  <SCORE.INTRA.REPUL.0>
0

>  <SCORE.INTRA.SOLV>
0.102124

>  <SCORE.INTRA.SOLV.lig_0>
-60.4375

>  <SCORE.INTRA.VDW>
0.788145

>  <SCORE.INTRA.VDW.0>
-1.83689

>  <SCORE.INTRA.norm>
0.0253119

>  <SCORE.RESTR>
0

>  <SCORE.RESTR.CAVITY>
0

>  <SCORE.RESTR.norm>
0

>  <SCORE.SYSTEM>
0

>  <SCORE.SYSTEM.CONST>
0

>  <SCORE.SYSTEM.DIHEDRAL>
0

>  <SCORE.SYSTEM.SOLV>
0

>  <SCORE.SYSTEM.norm>
0

>  <SCORE.heavy>
46

>  <SCORE.norm>
-0.523648

>  <RMSD>
5.079

$$$$
lig.pdb
 OpenBabel11021811523D
libRbt.so/2013.1/901 2013/11/27
 46 52  0  0  0  0  0  0  0  0999 V2000
  160.8465   44.5583  142.5402 P   0  0  2  0  0  0  0  0  0  0  0  0
  161.5862   45.2272  141.4022 O   0  0  0  0  0  0  0  0  0  0  0  0
  159.8744   43.4684  142.1686 O   0  0  0  0  0  0  0  0  0  0  0  0
  160.0730   45.6364  143.4482 O   0  0  0  0  0  0  0  0  0  0  0  0
  160.2808   47.0333  143.2847 C   0  0  0  0  0  0  0  0  0  0  0  0
  159.7509   47.7831  144.4958 C   0  0  1  0  0  0  0  0  0  0  0  0
  158.5087   48.3726  144.1387 O   0  0  0  0  0  0  0  0  0  0  0  0
  159.4797   46.9333  145.7308 C   0  0  1  0  0  0  0  0  0  0  0  0
  160.5161   47.1280  146.6818 O   0  0  0  0  0  0  0  0  0  0  0  0
  158.2079   47.5265  146.2942 C   0  0  1  0  0  0  0  0  0  0  0  0
  158.5321   48.5680  147.2173 O   0  0  0  0  0  0  0  0  0  0  0  0
  157.5141   48.1755  145.1319 C   0  0  2  0  0  0  0  0  0  0  0  0
  156.4883   47.2485  144.5980 N   0  0  0  0  0  0  0  0  0  0  0  0
  156.1156   47.1501  143.3100 C   0  0  0  0  0  0  0  0  0  0  0  0
  155.1445   46.2170  143.1640 N   0  0  0  0  0  0  0  0  0  0  0  0
  154.8792   45.6987  144.3763 C   0  0  0  0  0  0  0  0  0  0  0  0
  153.9636   44.6711  144.9256 C   0  0  0  0  0  0  0  0  0  0  0  0
  153.1759   44.0555  144.1676 O   0  0  0  0  0  0  0  0  0  0  0  0
  154.0089   44.4317  146.2474 N   0  0  0  0  0  0  0  0  0  0  0  0
  154.8551   45.0962  147.0570 C   0  0  0  0  0  0  0  0  0  0  0  0
  154.8606   44.8104  148.3782 N   0  0  0  0  0  0  0  0  0  0  0  0
  155.7154   46.0446  146.6218 N   0  0  0  0  0  0  0  0  0  0  0  0
  155.7720   46.3838  145.3162 C   0  0  0  0  0  0  0  0  0  0  0  0
  160.7098   46.1917  147.9940 P   0  0  2  0  0  0  0  0  0  0  0  0
  159.3865   46.0588  148.7077 O   0  0  0  0  0  0  0  0  0  0  0  0
  161.9340   46.7259  148.7139 O   0  0  0  0  0  0  0  0  0  0  0  0
  161.0563   44.7536  147.3450 O   0  0  0  0  0  0  0  0  0  0  0  0
  162.3779   44.4765  146.8833 C   0  0  0  0  0  0  0  0  0  0  0  0
  162.4399   43.3007  145.9034 C   0  0  1  0  0  0  0  0  0  0  0  0
  162.2519   42.0782  146.6195 O   0  0  0  0  0  0  0  0  0  0  0  0
  161.3922   43.3280  144.7928 C   0  0  1  0  0  0  0  0  0  0  0  0
  161.8881   43.9256  143.5957 O   0  0  0  0  0  0  0  0  0  0  0  0
  161.0911   41.8538  144.5969 C   0  0  1  0  0  0  0  0  0  0  0  0
  162.0078   41.2661  143.6695 O   0  0  0  0  0  0  0  0  0  0  0  0
  161.3353   41.2111  145.9463 C   0  0  2  0  0  0  0  0  0  0  0  0
  160.0656   41.1703  146.7133 N   0  0  0  0  0  0  0  0  0  0  0  0
  158.9704   41.9142  146.4608 C   0  0  0  0  0  0  0  0  0  0  0  0
  157.9596   41.6411  147.3320 N   0  0  0  0  0  0  0  0  0  0  0  0
  158.4048   40.6905  148.1690 C   0  0  0  0  0  0  0  0  0  0  0  0
  157.8602   39.9503  149.3356 C   0  0  0  0  0  0  0  0  0  0  0  0
  156.6979   40.1295  149.7587 O   0  0  0  0  0  0  0  0  0  0  0  0
  158.6539   39.0502  149.9185 N   0  0  0  0  0  0  0  0  0  0  0  0
  159.9068   38.8167  149.4983 C   0  0  0  0  0  0  0  0  0  0  0  0
  160.6216   37.8995  150.1669 N   0  0  0  0  0  0  0  0  0  0  0  0
  160.4767   39.4557  148.4499 N   0  0  0  0  0  0  0  0  0  0  0  0
  159.7902   40.3882  147.7567 C   0  0  0  0  0  0  0  0  0  0  0  0
  1  3  2  6  0  0  0
  1 32  1  0  0  0  0
  1  2  1  0  0  0  0
  1  4  1  0  0  0  0
  4  5  1  0  0  0  0
  6  5  1  6  0  0  0
  7  6  1  0  0  0  0
  8  6  1  0  0  0  0
  8 10  1  0  0  0  0
  8  9  1  1  0  0  0
 10 11  1  1  0  0  0
 12 13  1  6  0  0  0
 12  7  1  0  0  0  0
 12 10  1  0  0  0  0
 14 13  1  0  0  0  0
 15 16  1  0  0  0  0
 15 14  2  0  0  0  0
 16 23  2  0  0  0  0
 17 16  1  0  0  0  0
 17 19  1  0  0  0  0
 18 17  2  0  0  0  0
 19 20  2  0  0  0  0
 20 22  1  0  0  0  0
 20 21  1  0  0  0  0
 23 13  1  0  0  0  0
 23 22  1  0  0  0  0
 24 25  2  1  0  0  0
 24  9  1  0  0  0  0
 24 26  1  0  0  0  0
 27 28  1  0  0  0  0
 27 24  1  0  0  0  0
 29 30  1  1  0  0  0
 29 28  1  0  0  0  0
 31 32  1  6  0  0  0
 31 29  1  0  0  0  0
 33 34  1  6  0  0  0
 33 35  1  0  0  0  0
 33 31  1  0  0  0  0
 35 36  1  1  0  0  0
 35 30  1  0  0  0  0
 36 37  1  0  0  0  0
 38 37  2  0  0  0  0
 39 38  1  0  0  0  0
 40 41  2  0  0  0  0
 40 39  1  0  0  0  0
 42 40  1  0  0  0  0
 43 42  2  0  0  0  0
 43 45  1  0  0  0  0
 44 43  1  0  0  0  0
 45 46  1  0  0  0  0
 46 39  2  0  0  0  0
 46 36  1  0  0  0  0
M  END
>  <CHROM.1>
-32.09302660,96.47150493,159.02664168,44.21149471,145.99291510,-1.89506373
-0.26359420,2.54065758

>  <Name>
lig.pdb

>  <RI>
0

>  <Rbt.Current_Directory>
/home/itssahil/PROJECTS/Mol_Feturizer/New_Systems/rnas/4yb0

>  <Rbt.Executable>
rbdock ($Id: //depot/dev/client3/rdock/2013.1/src/exe/rbdock.cxx#4 $)

>  <Rbt.Library>
libRbt.so (2013.1, Build901 2013/11/27)

>  <Rbt.Parameter_File>
/export/apps/rDock/src/rDock_2013.1_src/data/scripts/dock_solv.prm

>  <Rbt.Receptor>
prm/pocket_docking_5.prm

>  <SCORE>
-25.217

>  <SCORE.INTER>
-26.2933

>  <SCORE.INTER.CONST>
1

>  <SCORE.INTER.POLAR>
0

>  <SCORE.INTER.ROT>
2

>  <SCORE.INTER.SOLV>
20.6725

>  <SCORE.INTER.VDW>
-29.353

>  <SCORE.INTER.norm>
-0.571593

>  <SCORE.INTRA>
1.07626

>  <SCORE.INTRA.DIHEDRAL>
0.046895

>  <SCORE.INTRA.DIHEDRAL.0>
4.74153

>  <SCORE.INTRA.POLAR>
0

>  <SCORE.INTRA.POLAR.0>
0

>  <SCORE.INTRA.REPUL>
0.016175

>  <SCORE.INTRA.REPUL.0>
0

>  <SCORE.INTRA.SOLV>
-0.0257577

>  <SCORE.INTRA.SOLV.lig_0>
-60.4375

>  <SCORE.INTRA.VDW>
0.984819

>  <SCORE.INTRA.VDW.0>
-1.83689

>  <SCORE.INTRA.norm>
0.023397

>  <SCORE.RESTR>
0

>  <SCORE.RESTR.CAVITY>
0

>  <SCORE.RESTR.norm>
0

>  <SCORE.SYSTEM>
0

>  <SCORE.SYSTEM.CONST>
0

>  <SCORE.SYSTEM.DIHEDRAL>
0

>  <SCORE.SYSTEM.SOLV>
0

>  <SCORE.SYSTEM.norm>
0

>  <SCORE.heavy>
46

>  <SCORE.norm>
-0.548196

>  <RMSD>
5.081

$$$$
lig.pdb
 OpenBabel11021811523D
libRbt.so/2013.1/901 2013/11/27
 46 52  0  0  0  0  0  0  0  0999 V2000
  160.7950   44.6203  142.6438 P   0  0  2  0  0  0  0  0  0  0  0  0
  161.5247   45.2981  141.5046 O   0  0  0  0  0  0  0  0  0  0  0  0
  159.8264   43.5270  142.2728 O   0  0  0  0  0  0  0  0  0  0  0  0
  160.0211   45.6903  143.5610 O   0  0  0  0  0  0  0  0  0  0  0  0
  160.2208   47.0889  143.4025 C   0  0  0  0  0  0  0  0  0  0  0  0
  159.6938   47.8306  144.6199 C   0  0  1  0  0  0  0  0  0  0  0  0
  158.4466   48.4152  144.2726 O   0  0  0  0  0  0  0  0  0  0  0  0
  159.4340   46.9740  145.8526 C   0  0  1  0  0  0  0  0  0  0  0  0
  160.4748   47.1697  146.7987 O   0  0  0  0  0  0  0  0  0  0  0  0
  158.1623   47.5580  146.4259 C   0  0  1  0  0  0  0  0  0  0  0  0
  158.4864   48.5970  147.3518 O   0  0  0  0  0  0  0  0  0  0  0  0
  157.4586   48.2085  145.2705 C   0  0  2  0  0  0  0  0  0  0  0  0
  156.4346   47.2786  144.7381 N   0  0  0  0  0  0  0  0  0  0  0  0
  156.0439   47.1950  143.4545 C   0  0  0  0  0  0  0  0  0  0  0  0
  155.0804   46.2539  143.3092 N   0  0  0  0  0  0  0  0  0  0  0  0
  154.8385   45.7153  144.5176 C   0  0  0  0  0  0  0  0  0  0  0  0
  153.9419   44.6702  145.0652 C   0  0  0  0  0  0  0  0  0  0  0  0
  153.1494   44.0575  144.3099 O   0  0  0  0  0  0  0  0  0  0  0  0
  154.0094   44.4121  146.3825 N   0  0  0  0  0  0  0  0  0  0  0  0
  154.8606   45.0737  147.1891 C   0  0  0  0  0  0  0  0  0  0  0  0
  154.8888   44.7689  148.5058 N   0  0  0  0  0  0  0  0  0  0  0  0
  155.7045   46.0373  146.7553 N   0  0  0  0  0  0  0  0  0  0  0  0
  155.7382   46.3960  145.4541 C   0  0  0  0  0  0  0  0  0  0  0  0
  160.6808   46.2286  148.1056 P   0  0  2  0  0  0  0  0  0  0  0  0
  159.3623   46.0857  148.8261 O   0  0  0  0  0  0  0  0  0  0  0  0
  161.9062   46.7659  148.8209 O   0  0  0  0  0  0  0  0  0  0  0  0
  161.0310   44.7953  147.4482 O   0  0  0  0  0  0  0  0  0  0  0  0
  162.3513   44.5270  146.9778 C   0  0  0  0  0  0  0  0  0  0  0  0
  162.4139   43.3559  145.9922 C   0  0  1  0  0  0  0  0  0  0  0  0
  162.2362   42.1293  146.7039 O   0  0  0  0  0  0  0  0  0  0  0  0
  161.3597   43.3828  144.8877 C   0  0  1  0  0  0  0  0  0  0  0  0
  161.8458   43.9883  143.6905 O   0  0  0  0  0  0  0  0  0  0  0  0
  161.0652   41.9080  144.6869 C   0  0  1  0  0  0  0  0  0  0  0  0
  161.9797   41.3292  143.7518 O   0  0  0  0  0  0  0  0  0  0  0  0
  161.3203   41.2605  146.0320 C   0  0  2  0  0  0  0  0  0  0  0  0
  160.0552   41.2097  146.8059 N   0  0  0  0  0  0  0  0  0  0  0  0
  158.9845   42.0059  146.6154 C   0  0  0  0  0  0  0  0  0  0  0  0
  157.9709   41.7075  147.4750 N   0  0  0  0  0  0  0  0  0  0  0  0
  158.3889   40.6868  148.2403 C   0  0  0  0  0  0  0  0  0  0  0  0
  157.8271   39.8864  149.3581 C   0  0  0  0  0  0  0  0  0  0  0  0
  156.6746   40.0752  149.8031 O   0  0  0  0  0  0  0  0  0  0  0  0
  158.5933   38.9219  149.8702 N   0  0  0  0  0  0  0  0  0  0  0  0
  159.8346   38.6757  149.4234 C   0  0  0  0  0  0  0  0  0  0  0  0
  160.5220   37.6908  150.0206 N   0  0  0  0  0  0  0  0  0  0  0  0
  160.4190   39.3661  148.4164 N   0  0  0  0  0  0  0  0  0  0  0  0
  159.7602   40.3670  147.7955 C   0  0  0  0  0  0  0  0  0  0  0  0
  1  3  2  6  0  0  0
  1 32  1  0  0  0  0
  1  2  1  0  0  0  0
  1  4  1  0  0  0  0
  4  5  1  0  0  0  0
  6  5  1  6  0  0  0
  7  6  1  0  0  0  0
  8  6  1  0  0  0  0
  8 10  1  0  0  0  0
  8  9  1  1  0  0  0
 10 11  1  1  0  0  0
 12 13  1  6  0  0  0
 12  7  1  0  0  0  0
 12 10  1  0  0  0  0
 14 13  1  0  0  0  0
 15 16  1  0  0  0  0
 15 14  2  0  0  0  0
 16 23  2  0  0  0  0
 17 16  1  0  0  0  0
 17 19  1  0  0  0  0
 18 17  2  0  0  0  0
 19 20  2  0  0  0  0
 20 22  1  0  0  0  0
 20 21  1  0  0  0  0
 23 13  1  0  0  0  0
 23 22  1  0  0  0  0
 24 25  2  1  0  0  0
 24  9  1  0  0  0  0
 24 26  1  0  0  0  0
 27 28  1  0  0  0  0
 27 24  1  0  0  0  0
 29 30  1  1  0  0  0
 29 28  1  0  0  0  0
 31 32  1  6  0  0  0
 31 29  1  0  0  0  0
 33 34  1  6  0  0  0
 33 35  1  0  0  0  0
 33 31  1  0  0  0  0
 35 36  1  1  0  0  0
 35 30  1  0  0  0  0
 36 37  1  0  0  0  0
 38 37  2  0  0  0  0
 39 38  1  0  0  0  0
 40 41  2  0  0  0  0
 40 39  1  0  0  0  0
 42 40  1  0  0  0  0
 43 42  2  0  0  0  0
 43 45  1  0  0  0  0
 44 43  1  0  0  0  0
 45 46  1  0  0  0  0
 46 39  2  0  0  0  0
 46 36  1  0  0  0  0
M  END
>  <CHROM.1>
-32.93235813,92.13399806,158.99116923,44.22967863,146.08933425,-1.88176344
-0.25899303,2.56952762

>  <Name>
lig.pdb

>  <RI>
0

>  <Rbt.Current_Directory>
/home/itssahil/PROJECTS/Mol_Feturizer/New_Systems/rnas/4yb0

>  <Rbt.Executable>
rbdock ($Id: //depot/dev/client3/rdock/2013.1/src/exe/rbdock.cxx#4 $)

>  <Rbt.Library>
libRbt.so (2013.1, Build901 2013/11/27)

>  <Rbt.Parameter_File>
/export/apps/rDock/src/rDock_2013.1_src/data/scripts/dock_solv.prm

>  <Rbt.Receptor>
prm/pocket_docking_5.prm

>  <SCORE>
-25.4363

>  <SCORE.INTER>
-26.446

>  <SCORE.INTER.CONST>
1

>  <SCORE.INTER.POLAR>
0

>  <SCORE.INTER.ROT>
2

>  <SCORE.INTER.SOLV>
20.3071

>  <SCORE.INTER.VDW>
-29.333

>  <SCORE.INTER.norm>
-0.574913

>  <SCORE.INTRA>
1.00972

>  <SCORE.INTRA.DIHEDRAL>
0.043969

>  <SCORE.INTRA.DIHEDRAL.0>
4.74153

>  <SCORE.INTRA.POLAR>
0

>  <SCORE.INTRA.POLAR.0>
0

>  <SCORE.INTRA.REPUL>
0.0161213

>  <SCORE.INTRA.REPUL.0>
0

>  <SCORE.INTRA.SOLV>
-0.0263096

>  <SCORE.INTRA.SOLV.lig_0>
-60.4375

>  <SCORE.INTRA.VDW>
0.920284

>  <SCORE.INTRA.VDW.0>
-1.83689

>  <SCORE.INTRA.norm>
0.0219504

>  <SCORE.RESTR>
0

>  <SCORE.RESTR.CAVITY>
0

>  <SCORE.RESTR.norm>
0

>  <SCORE.SYSTEM>
0

>  <SCORE.SYSTEM.CONST>
0

>  <SCORE.SYSTEM.DIHEDRAL>
0

>  <SCORE.SYSTEM.SOLV>
0

>  <SCORE.SYSTEM.norm>
0

>  <SCORE.heavy>
46

>  <SCORE.norm>
-0.552962

>  <RMSD>
5.087

$$$$
lig.pdb
 OpenBabel11021811523D
libRbt.so/2013.1/901 2013/11/27
 46 52  0  0  0  0  0  0  0  0999 V2000
  160.8047   44.5973  142.6204 P   0  0  2  0  0  0  0  0  0  0  0  0
  161.5352   45.2660  141.4764 O   0  0  0  0  0  0  0  0  0  0  0  0
  159.8330   43.5042  142.2571 O   0  0  0  0  0  0  0  0  0  0  0  0
  160.0344   45.6749  143.5317 O   0  0  0  0  0  0  0  0  0  0  0  0
  160.2376   47.0720  143.3643 C   0  0  0  0  0  0  0  0  0  0  0  0
  159.7136   47.8225  144.5776 C   0  0  1  0  0  0  0  0  0  0  0  0
  158.4677   48.4083  144.2277 O   0  0  0  0  0  0  0  0  0  0  0  0
  159.4528   46.9743  145.8158 C   0  0  1  0  0  0  0  0  0  0  0  0
  160.4949   47.1732  146.7597 O   0  0  0  0  0  0  0  0  0  0  0  0
  158.1831   47.5652  146.3866 C   0  0  1  0  0  0  0  0  0  0  0  0
  158.5107   48.6091  147.3057 O   0  0  0  0  0  0  0  0  0  0  0  0
  157.4800   48.2103  145.2278 C   0  0  2  0  0  0  0  0  0  0  0  0
  156.4531   47.2797  144.7021 N   0  0  0  0  0  0  0  0  0  0  0  0
  156.0549   47.1952  143.4209 C   0  0  0  0  0  0  0  0  0  0  0  0
  155.0908   46.2537  143.2819 N   0  0  0  0  0  0  0  0  0  0  0  0
  154.8562   45.7159  144.4921 C   0  0  0  0  0  0  0  0  0  0  0  0
  153.9630   44.6710  145.0457 C   0  0  0  0  0  0  0  0  0  0  0  0
  153.1663   44.0575  144.2956 O   0  0  0  0  0  0  0  0  0  0  0  0
  154.0383   44.4139  146.3628 N   0  0  0  0  0  0  0  0  0  0  0  0
  154.8941   45.0763  147.1639 C   0  0  0  0  0  0  0  0  0  0  0  0
  154.9301   44.7724  148.4806 N   0  0  0  0  0  0  0  0  0  0  0  0
  155.7352   46.0398  146.7245 N   0  0  0  0  0  0  0  0  0  0  0  0
  155.7611   46.3976  145.4228 C   0  0  0  0  0  0  0  0  0  0  0  0
  160.6997   46.2398  148.0722 P   0  0  2  0  0  0  0  0  0  0  0  0
  159.3814   46.1047  148.7948 O   0  0  0  0  0  0  0  0  0  0  0  0
  161.9271   46.7783  148.7831 O   0  0  0  0  0  0  0  0  0  0  0  0
  161.0456   44.8014  147.4234 O   0  0  0  0  0  0  0  0  0  0  0  0
  162.3648   44.5269  146.9535 C   0  0  0  0  0  0  0  0  0  0  0  0
  162.4234   43.3495  145.9752 C   0  0  1  0  0  0  0  0  0  0  0  0
  162.2432   42.1278  146.6947 O   0  0  0  0  0  0  0  0  0  0  0  0
  161.3683   43.3722  144.8715 C   0  0  1  0  0  0  0  0  0  0  0  0
  161.8548   43.9690  143.6701 O   0  0  0  0  0  0  0  0  0  0  0  0
  161.0698   41.8969  144.6801 C   0  0  1  0  0  0  0  0  0  0  0  0
  161.9819   41.3100  143.7478 O   0  0  0  0  0  0  0  0  0  0  0  0
  161.3245   41.2572  146.0289 C   0  0  2  0  0  0  0  0  0  0  0  0
  160.0600   41.2145  146.8043 N   0  0  0  0  0  0  0  0  0  0  0  0
  159.0023   42.0312  146.6290 C   0  0  0  0  0  0  0  0  0  0  0  0
  157.9853   41.7354  147.4854 N   0  0  0  0  0  0  0  0  0  0  0  0
  158.3876   40.6955  148.2330 C   0  0  0  0  0  0  0  0  0  0  0  0
  157.8144   39.8861  149.3385 C   0  0  0  0  0  0  0  0  0  0  0  0
  156.6659   40.0865  149.7888 O   0  0  0  0  0  0  0  0  0  0  0  0
  158.5655   38.9008  149.8332 N   0  0  0  0  0  0  0  0  0  0  0  0
  159.8017   38.6416  149.3801 C   0  0  0  0  0  0  0  0  0  0  0  0
  160.4737   37.6357  149.9597 N   0  0  0  0  0  0  0  0  0  0  0  0
  160.3958   39.3388  148.3835 N   0  0  0  0  0  0  0  0  0  0  0  0
  159.7527   40.3606  147.7804 C   0  0  0  0  0  0  0  0  0  0  0  0
  1  3  2  6  0  0  0
  1 32  1  0  0  0  0
  1  2  1  0  0  0  0
  1  4  1  0  0  0  0
  4  5  1  0  0  0  0
  6  5  1  6  0  0  0
  7  6  1  0  0  0  0
  8  6  1  0  0  0  0
  8 10  1  0  0  0  0
  8  9  1  1  0  0  0
 10 11  1  1  0  0  0
 12 13  1  6  0  0  0
 12  7  1  0  0  0  0
 12 10  1  0  0  0  0
 14 13  1  0  0  0  0
 15 16  1  0  0  0  0
 15 14  2  0  0  0  0
 16 23  2  0  0  0  0
 17 16  1  0  0  0  0
 17 19  1  0  0  0  0
 18 17  2  0  0  0  0
 19 20  2  0  0  0  0
 20 22  1  0  0  0  0
 20 21  1  0  0  0  0
 23 13  1  0  0  0  0
 23 22  1  0  0  0  0
 24 25  2  1  0  0  0
 24  9  1  0  0  0  0
 24 26  1  0  0  0  0
 27 28  1  0  0  0  0
 27 24  1  0  0  0  0
 29 30  1  1  0  0  0
 29 28  1  0  0  0  0
 31 32  1  6  0  0  0
 31 29  1  0  0  0  0
 33 34  1  6  0  0  0
 33 35  1  0  0  0  0
 33 31  1  0  0  0  0
 35 36  1  1  0  0  0
 35 30  1  0  0  0  0
 36 37  1  0  0  0  0
 38 37  2  0  0  0  0
 39 38  1  0  0  0  0
 40 41  2  0  0  0  0
 40 39  1  0  0  0  0
 42 40  1  0  0  0  0
 43 42  2  0  0  0  0
 43 45  1  0  0  0  0
 44 43  1  0  0  0  0
 45 46  1  0  0  0  0
 46 39  2  0  0  0  0
 46 36  1  0  0  0  0
M  END
>  <CHROM.1>
-33.38582673,90.60690041,159.00161306,44.22570892,146.06405678,-1.87174823
-0.25844482,2.57312369

>  <Name>
lig.pdb

>  <RI>
0

>  <Rbt.Current_Directory>
/home/itssahil/PROJECTS/Mol_Feturizer/New_Systems/rnas/4yb0

>  <Rbt.Executable>
rbdock ($Id: //depot/dev/client3/rdock/2013.1/src/exe/rbdock.cxx#4 $)

>  <Rbt.Library>
libRbt.so (2013.1, Build901 2013/11/27)

>  <Rbt.Parameter_File>
/export/apps/rDock/src/rDock_2013.1_src/data/scripts/dock_solv.prm

>  <Rbt.Receptor>
prm/pocket_docking_6.prm

>  <SCORE>
-25.423

>  <SCORE.INTER>
-26.4088

>  <SCORE.INTER.CONST>
1

>  <SCORE.INTER.POLAR>
0

>  <SCORE.INTER.ROT>
2

>  <SCORE.INTER.SOLV>
20.2902

>  <SCORE.INTER.VDW>
-29.3026

>  <SCORE.INTER.norm>
-0.574103

>  <SCORE.INTRA>
0.985794

>  <SCORE.INTRA.DIHEDRAL>
0.0435897

>  <SCORE.INTRA.DIHEDRAL.0>
4.74153

>  <SCORE.INTRA.POLAR>
0

>  <SCORE.INTRA.POLAR.0>
0

>  <SCORE.INTRA.REPUL>
0.0159178

>  <SCORE.INTRA.REPUL.0>
0

>  <SCORE.INTRA.SOLV>
-0.0140866

>  <SCORE.INTRA.SOLV.lig_0>
-60.4375

>  <SCORE.INTRA.VDW>
0.891453

>  <SCORE.INTRA.VDW.0>
-1.83689

>  <SCORE.INTRA.norm>
0.0214303

>  <SCORE.RESTR>
0

>  <SCORE.RESTR.CAVITY>
0

>  <SCORE.RESTR.norm>
0

>  <SCORE.SYSTEM>
0

>  <SCORE.SYSTEM.CONST>
0

>  <SCORE.SYSTEM.DIHEDRAL>
0

>  <SCORE.SYSTEM.SOLV>
0

>  <SCORE.SYSTEM.norm>
0

>  <SCORE.heavy>
46

>  <SCORE.norm>
-0.552673

>  <RMSD>
5.087

$$$$
lig.pdb
 OpenBabel11021811523D
libRbt.so/2013.1/901 2013/11/27
 46 52  0  0  0  0  0  0  0  0999 V2000
  160.8083   44.6135  142.6206 P   0  0  2  0  0  0  0  0  0  0  0  0
  161.5389   45.2839  141.4776 O   0  0  0  0  0  0  0  0  0  0  0  0
  159.8383   43.5194  142.2557 O   0  0  0  0  0  0  0  0  0  0  0  0
  160.0358   45.6896  143.5317 O   0  0  0  0  0  0  0  0  0  0  0  0
  160.2373   47.0871  143.3654 C   0  0  0  0  0  0  0  0  0  0  0  0
  159.7113   47.8362  144.5786 C   0  0  1  0  0  0  0  0  0  0  0  0
  158.4649   48.4206  144.2279 O   0  0  0  0  0  0  0  0  0  0  0  0
  159.4503   46.9869  145.8161 C   0  0  1  0  0  0  0  0  0  0  0  0
  160.4913   47.1866  146.7610 O   0  0  0  0  0  0  0  0  0  0  0  0
  158.1794   47.5758  146.3860 C   0  0  1  0  0  0  0  0  0  0  0  0
  158.5048   48.6196  147.3061 O   0  0  0  0  0  0  0  0  0  0  0  0
  157.4766   48.2208  145.2269 C   0  0  2  0  0  0  0  0  0  0  0  0
  156.4513   47.2892  144.6998 N   0  0  0  0  0  0  0  0  0  0  0  0
  156.0546   47.2047  143.4181 C   0  0  0  0  0  0  0  0  0  0  0  0
  155.0917   46.2621  143.2777 N   0  0  0  0  0  0  0  0  0  0  0  0
  154.8565   45.7235  144.4874 C   0  0  0  0  0  0  0  0  0  0  0  0
  153.9640   44.6773  145.0396 C   0  0  0  0  0  0  0  0  0  0  0  0
  153.1688   44.0632  144.2883 O   0  0  0  0  0  0  0  0  0  0  0  0
  154.0382   44.4197  146.3566 N   0  0  0  0  0  0  0  0  0  0  0  0
  154.8923   45.0828  147.1590 C   0  0  0  0  0  0  0  0  0  0  0  0
  154.9273   44.7784  148.4756 N   0  0  0  0  0  0  0  0  0  0  0  0
  155.7327   46.0475  146.7208 N   0  0  0  0  0  0  0  0  0  0  0  0
  155.7596   46.4058  145.4194 C   0  0  0  0  0  0  0  0  0  0  0  0
  160.6960   46.2526  148.0732 P   0  0  2  0  0  0  0  0  0  0  0  0
  159.3773   46.1154  148.7945 O   0  0  0  0  0  0  0  0  0  0  0  0
  161.9221   46.7923  148.7855 O   0  0  0  0  0  0  0  0  0  0  0  0
  161.0444   44.8151  147.4239 O   0  0  0  0  0  0  0  0  0  0  0  0
  162.3644   44.5425  146.9551 C   0  0  0  0  0  0  0  0  0  0  0  0
  162.4254   43.3658  145.9761 C   0  0  1  0  0  0  0  0  0  0  0  0
  162.2461   42.1434  146.6947 O   0  0  0  0  0  0  0  0  0  0  0  0
  161.3714   43.3878  144.8714 C   0  0  1  0  0  0  0  0  0  0  0  0
  161.8582   43.9860  143.6708 O   0  0  0  0  0  0  0  0  0  0  0  0
  161.0748   41.9123  144.6789 C   0  0  1  0  0  0  0  0  0  0  0  0
  161.9886   41.3271  143.7471 O   0  0  0  0  0  0  0  0  0  0  0  0
  161.3291   41.2721  146.0276 C   0  0  2  0  0  0  0  0  0  0  0  0
  160.0639   41.2273  146.8018 N   0  0  0  0  0  0  0  0  0  0  0  0
  159.0019   42.0369  146.6199 C   0  0  0  0  0  0  0  0  0  0  0  0
  157.9855   41.7410  147.4771 N   0  0  0  0  0  0  0  0  0  0  0  0
  158.3928   40.7082  148.2319 C   0  0  0  0  0  0  0  0  0  0  0  0
  157.8229   39.9028  149.3420 C   0  0  0  0  0  0  0  0  0  0  0  0
  156.6727   40.0996  149.7896 O   0  0  0  0  0  0  0  0  0  0  0  0
  158.5788   38.9250  149.8440 N   0  0  0  0  0  0  0  0  0  0  0  0
  159.8171   38.6698  149.3940 C   0  0  0  0  0  0  0  0  0  0  0  0
  160.4941   37.6716  149.9810 N   0  0  0  0  0  0  0  0  0  0  0  0
  160.4084   39.3639  148.3935 N   0  0  0  0  0  0  0  0  0  0  0  0
  159.7603   40.3780  147.7831 C   0  0  0  0  0  0  0  0  0  0  0  0
  1  3  2  6  0  0  0
  1 32  1  0  0  0  0
  1  2  1  0  0  0  0
  1  4  1  0  0  0  0
  4  5  1  0  0  0  0
  6  5  1  6  0  0  0
  7  6  1  0  0  0  0
  8  6  1  0  0  0  0
  8 10  1  0  0  0  0
  8  9  1  1  0  0  0
 10 11  1  1  0  0  0
 12 13  1  6  0  0  0
 12  7  1  0  0  0  0
 12 10  1  0  0  0  0
 14 13  1  0  0  0  0
 15 16  1  0  0  0  0
 15 14  2  0  0  0  0
 16 23  2  0  0  0  0
 17 16  1  0  0  0  0
 17 19  1  0  0  0  0
 18 17  2  0  0  0  0
 19 20  2  0  0  0  0
 20 22  1  0  0  0  0
 20 21  1  0  0  0  0
 23 13  1  0  0  0  0
 23 22  1  0  0  0  0
 24 25  2  1  0  0  0
 24  9  1  0  0  0  0
 24 26  1  0  0  0  0
 27 28  1  0  0  0  0
 27 24  1  0  0  0  0
 29 30  1  1  0  0  0
 29 28  1  0  0  0  0
 31 32  1  6  0  0  0
 31 29  1  0  0  0  0
 33 34  1  6  0  0  0
 33 35  1  0  0  0  0
 33 31  1  0  0  0  0
 35 36  1  1  0  0  0
 35 30  1  0  0  0  0
 36 37  1  0  0  0  0
 38 37  2  0  0  0  0
 39 38  1  0  0  0  0
 40 41  2  0  0  0  0
 40 39  1  0  0  0  0
 42 40  1  0  0  0  0
 43 42  2  0  0  0  0
 43 45  1  0  0  0  0
 44 43  1  0  0  0  0
 45 46  1  0  0  0  0
 46 39  2  0  0  0  0
 46 36  1  0  0  0  0
M  END
>  <CHROM.1>
-33.37395243,91.08496809,159.00338741,44.23927716,146.06405407,-1.87414039
-0.25749710,2.57069454

>  <Name>
lig.pdb

>  <RI>
0

>  <Rbt.Current_Directory>
/home/itssahil/PROJECTS/Mol_Feturizer/New_Systems/rnas/4yb0

>  <Rbt.Executable>
rbdock ($Id: //depot/dev/client3/rdock/2013.1/src/exe/rbdock.cxx#4 $)

>  <Rbt.Library>
libRbt.so (2013.1, Build901 2013/11/27)

>  <Rbt.Parameter_File>
/export/apps/rDock/src/rDock_2013.1_src/data/scripts/dock_solv.prm

>  <Rbt.Receptor>
prm/pocket_docking_7.prm

>  <SCORE>
-25.465

>  <SCORE.INTER>
-26.4603

>  <SCORE.INTER.CONST>
1

>  <SCORE.INTER.POLAR>
0

>  <SCORE.INTER.ROT>
2

>  <SCORE.INTER.SOLV>
20.2439

>  <SCORE.INTER.VDW>
-29.3215

>  <SCORE.INTER.norm>
-0.575223

>  <SCORE.INTRA>
0.995225

>  <SCORE.INTRA.DIHEDRAL>
0.0436221

>  <SCORE.INTRA.DIHEDRAL.0>
4.74153

>  <SCORE.INTRA.POLAR>
0

>  <SCORE.INTRA.POLAR.0>
0

>  <SCORE.INTRA.REPUL>
0.0159248

>  <SCORE.INTRA.REPUL.0>
0

>  <SCORE.INTRA.SOLV>
-0.0169164

>  <SCORE.INTRA.SOLV.lig_0>
-60.4375

>  <SCORE.INTRA.VDW>
0.902248

>  <SCORE.INTRA.VDW.0>
-1.83689

>  <SCORE.INTRA.norm>
0.0216353

>  <SCORE.RESTR>
0

>  <SCORE.RESTR.CAVITY>
0

>  <SCORE.RESTR.norm>
0

>  <SCORE.SYSTEM>
0

>  <SCORE.SYSTEM.CONST>
0

>  <SCORE.SYSTEM.DIHEDRAL>
0

>  <SCORE.SYSTEM.SOLV>
0

>  <SCORE.SYSTEM.norm>
0

>  <SCORE.heavy>
46

>  <SCORE.norm>
-0.553588

>  <RMSD>
5.089

$$$$
lig.pdb
 OpenBabel11021811523D
libRbt.so/2013.1/901 2013/11/27
 46 52  0  0  0  0  0  0  0  0999 V2000
  160.8102   44.5915  142.6276 P   0  0  2  0  0  0  0  0  0  0  0  0
  161.5431   45.2585  141.4841 O   0  0  0  0  0  0  0  0  0  0  0  0
  159.8426   43.4947  142.2643 O   0  0  0  0  0  0  0  0  0  0  0  0
  160.0339   45.6701  143.5326 O   0  0  0  0  0  0  0  0  0  0  0  0
  160.2340   47.0671  143.3615 C   0  0  0  0  0  0  0  0  0  0  0  0
  159.7038   47.8202  144.5705 C   0  0  1  0  0  0  0  0  0  0  0  0
  158.4576   48.4016  144.2142 O   0  0  0  0  0  0  0  0  0  0  0  0
  159.4406   46.9752  145.8105 C   0  0  1  0  0  0  0  0  0  0  0  0
  160.4788   47.1799  146.7574 O   0  0  0  0  0  0  0  0  0  0  0  0
  158.1674   47.5647  146.3747 C   0  0  1  0  0  0  0  0  0  0  0  0
  158.4889   48.6124  147.2917 O   0  0  0  0  0  0  0  0  0  0  0  0
  157.4668   48.2043  145.2113 C   0  0  2  0  0  0  0  0  0  0  0  0
  156.4442   47.2694  144.6850 N   0  0  0  0  0  0  0  0  0  0  0  0
  156.0492   47.1813  143.4029 C   0  0  0  0  0  0  0  0  0  0  0  0
  155.0885   46.2364  143.2634 N   0  0  0  0  0  0  0  0  0  0  0  0
  154.8530   45.6999  144.4740 C   0  0  0  0  0  0  0  0  0  0  0  0
  153.9621   44.6530  145.0274 C   0  0  0  0  0  0  0  0  0  0  0  0
  153.1691   44.0355  144.2765 O   0  0  0  0  0  0  0  0  0  0  0  0
  154.0353   44.3983  146.3451 N   0  0  0  0  0  0  0  0  0  0  0  0
  154.8871   45.0649  147.1470 C   0  0  0  0  0  0  0  0  0  0  0  0
  154.9211   44.7634  148.4643 N   0  0  0  0  0  0  0  0  0  0  0  0
  155.7259   46.0305  146.7078 N   0  0  0  0  0  0  0  0  0  0  0  0
  155.7536   46.3861  145.4056 C   0  0  0  0  0  0  0  0  0  0  0  0
  160.6812   46.2512  148.0737 P   0  0  2  0  0  0  0  0  0  0  0  0
  159.3607   46.1150  148.7920 O   0  0  0  0  0  0  0  0  0  0  0  0
  161.9046   46.7951  148.7873 O   0  0  0  0  0  0  0  0  0  0  0  0
  161.0331   44.8117  147.4308 O   0  0  0  0  0  0  0  0  0  0  0  0
  162.3547   44.5390  146.9666 C   0  0  0  0  0  0  0  0  0  0  0  0
  162.4199   43.3587  145.9923 C   0  0  1  0  0  0  0  0  0  0  0  0
  162.2402   42.1388  146.7150 O   0  0  0  0  0  0  0  0  0  0  0  0
  161.3688   43.3751  144.8847 C   0  0  1  0  0  0  0  0  0  0  0  0
  161.8581   43.9693  143.6831 O   0  0  0  0  0  0  0  0  0  0  0  0
  161.0747   41.8985  144.6970 C   0  0  1  0  0  0  0  0  0  0  0  0
  161.9917   41.3109  143.7698 O   0  0  0  0  0  0  0  0  0  0  0  0
  161.3262   41.2637  146.0487 C   0  0  2  0  0  0  0  0  0  0  0  0
  160.0589   41.2202  146.8197 N   0  0  0  0  0  0  0  0  0  0  0  0
  158.9988   42.0319  146.6361 C   0  0  0  0  0  0  0  0  0  0  0  0
  157.9797   41.7368  147.4903 N   0  0  0  0  0  0  0  0  0  0  0  0
  158.3833   40.7023  148.2449 C   0  0  0  0  0  0  0  0  0  0  0  0
  157.8091   39.8966  149.3526 C   0  0  0  0  0  0  0  0  0  0  0  0
  156.6582   40.0949  149.7975 O   0  0  0  0  0  0  0  0  0  0  0  0
  158.5621   38.9168  149.8553 N   0  0  0  0  0  0  0  0  0  0  0  0
  159.8010   38.6600  149.4081 C   0  0  0  0  0  0  0  0  0  0  0  0
  160.4748   37.6599  149.9955 N   0  0  0  0  0  0  0  0  0  0  0  0
  160.3961   39.3542  148.4100 N   0  0  0  0  0  0  0  0  0  0  0  0
  159.7513   40.3703  147.7991 C   0  0  0  0  0  0  0  0  0  0  0  0
  1  3  2  6  0  0  0
  1 32  1  0  0  0  0
  1  2  1  0  0  0  0
  1  4  1  0  0  0  0
  4  5  1  0  0  0  0
  6  5  1  6  0  0  0
  7  6  1  0  0  0  0
  8  6  1  0  0  0  0
  8 10  1  0  0  0  0
  8  9  1  1  0  0  0
 10 11  1  1  0  0  0
 12 13  1  6  0  0  0
 12  7  1  0  0  0  0
 12 10  1  0  0  0  0
 14 13  1  0  0  0  0
 15 16  1  0  0  0  0
 15 14  2  0  0  0  0
 16 23  2  0  0  0  0
 17 16  1  0  0  0  0
 17 19  1  0  0  0  0
 18 17  2  0  0  0  0
 19 20  2  0  0  0  0
 20 22  1  0  0  0  0
 20 21  1  0  0  0  0
 23 13  1  0  0  0  0
 23 22  1  0  0  0  0
 24 25  2  1  0  0  0
 24  9  1  0  0  0  0
 24 26  1  0  0  0  0
 27 28  1  0  0  0  0
 27 24  1  0  0  0  0
 29 30  1  1  0  0  0
 29 28  1  0  0  0  0
 31 32  1  6  0  0  0
 31 29  1  0  0  0  0
 33 34  1  6  0  0  0
 33 35  1  0  0  0  0
 33 31  1  0  0  0  0
 35 36  1  1  0  0  0
 35 30  1  0  0  0  0
 36 37  1  0  0  0  0
 38 37  2  0  0  0  0
 39 38  1  0  0  0  0
 40 41  2  0  0  0  0
 40 39  1  0  0  0  0
 42 40  1  0  0  0  0
 43 42  2  0  0  0  0
 43 45  1  0  0  0  0
 44 43  1  0  0  0  0
 45 46  1  0  0  0  0
 46 39  2  0  0  0  0
 46 36  1  0  0  0  0
M  END
>  <CHROM.1>
-33.51136359,90.74720712,158.99635549,44.22633488,146.06630775,-1.87171592
-0.25383220,2.56908105

>  <Name>
lig.pdb

>  <RI>
0

>  <Rbt.Current_Directory>
/home/itssahil/PROJECTS/Mol_Feturizer/New_Systems/rnas/4yb0

>  <Rbt.Executable>
rbdock ($Id: //depot/dev/client3/rdock/2013.1/src/exe/rbdock.cxx#4 $)

>  <Rbt.Library>
libRbt.so (2013.1, Build901 2013/11/27)

>  <Rbt.Parameter_File>
/export/apps/rDock/src/rDock_2013.1_src/data/scripts/dock_solv.prm

>  <Rbt.Receptor>
prm/pocket_docking_6.prm

>  <SCORE>
-25.4372

>  <SCORE.INTER>
-26.4275

>  <SCORE.INTER.CONST>
1

>  <SCORE.INTER.POLAR>
0

>  <SCORE.INTER.ROT>
2

>  <SCORE.INTER.SOLV>
20.2704

>  <SCORE.INTER.VDW>
-29.3085

>  <SCORE.INTER.norm>
-0.57451

>  <SCORE.INTRA>
0.99028

>  <SCORE.INTRA.DIHEDRAL>
0.0435457

>  <SCORE.INTRA.DIHEDRAL.0>
4.74153

>  <SCORE.INTRA.POLAR>
0

>  <SCORE.INTRA.POLAR.0>
0

>  <SCORE.INTRA.REPUL>
0.0158387

>  <SCORE.INTRA.REPUL.0>
0

>  <SCORE.INTRA.SOLV>
-0.0139576

>  <SCORE.INTRA.SOLV.lig_0>
-60.4375

>  <SCORE.INTRA.VDW>
0.896293

>  <SCORE.INTRA.VDW.0>
-1.83689

>  <SCORE.INTRA.norm>
0.0215278

>  <SCORE.RESTR>
0

>  <SCORE.RESTR.CAVITY>
0

>  <SCORE.RESTR.norm>
0

>  <SCORE.SYSTEM>
0

>  <SCORE.SYSTEM.CONST>
0

>  <SCORE.SYSTEM.DIHEDRAL>
0

>  <SCORE.SYSTEM.SOLV>
0

>  <SCORE.SYSTEM.norm>
0

>  <SCORE.heavy>
46

>  <SCORE.norm>
-0.552983

>  <RMSD>
5.092

$$$$
lig.pdb
 OpenBabel11021811523D
libRbt.so/2013.1/901 2013/11/27
 46 52  0  0  0  0  0  0  0  0999 V2000
  160.8257   44.5970  142.6286 P   0  0  2  0  0  0  0  0  0  0  0  0
  161.5596   45.2643  141.4860 O   0  0  0  0  0  0  0  0  0  0  0  0
  159.8563   43.5023  142.2639 O   0  0  0  0  0  0  0  0  0  0  0  0
  160.0512   45.6756  143.5351 O   0  0  0  0  0  0  0  0  0  0  0  0
  160.2536   47.0726  143.3659 C   0  0  0  0  0  0  0  0  0  0  0  0
  159.7247   47.8249  144.5758 C   0  0  1  0  0  0  0  0  0  0  0  0
  158.4794   48.4089  144.2204 O   0  0  0  0  0  0  0  0  0  0  0  0
  159.4601   46.9787  145.8147 C   0  0  1  0  0  0  0  0  0  0  0  0
  160.4987   47.1804  146.7619 O   0  0  0  0  0  0  0  0  0  0  0  0
  158.1879   47.5695  146.3798 C   0  0  1  0  0  0  0  0  0  0  0  0
  158.5112   48.6155  147.2982 O   0  0  0  0  0  0  0  0  0  0  0  0
  157.4884   48.2118  145.2172 C   0  0  2  0  0  0  0  0  0  0  0  0
  156.4642   47.2793  144.6897 N   0  0  0  0  0  0  0  0  0  0  0  0
  156.0724   47.1903  143.4067 C   0  0  0  0  0  0  0  0  0  0  0  0
  155.1091   46.2483  143.2662 N   0  0  0  0  0  0  0  0  0  0  0  0
  154.8685   45.7146  144.4770 C   0  0  0  0  0  0  0  0  0  0  0  0
  153.9727   44.6715  145.0297 C   0  0  0  0  0  0  0  0  0  0  0  0
  153.1798   44.0553  144.2777 O   0  0  0  0  0  0  0  0  0  0  0  0
  154.0415   44.4189  146.3480 N   0  0  0  0  0  0  0  0  0  0  0  0
  154.8932   45.0841  147.1512 C   0  0  0  0  0  0  0  0  0  0  0  0
  154.9226   44.7848  148.4691 N   0  0  0  0  0  0  0  0  0  0  0  0
  155.7363   46.0462  146.7126 N   0  0  0  0  0  0  0  0  0  0  0  0
  155.7687   46.3995  145.4099 C   0  0  0  0  0  0  0  0  0  0  0  0
  160.6996   46.2496  148.0769 P   0  0  2  0  0  0  0  0  0  0  0  0
  159.3789   46.1146  148.7951 O   0  0  0  0  0  0  0  0  0  0  0  0
  161.9240   46.7905  148.7912 O   0  0  0  0  0  0  0  0  0  0  0  0
  161.0491   44.8103  147.4321 O   0  0  0  0  0  0  0  0  0  0  0  0
  162.3702   44.5361  146.9674 C   0  0  0  0  0  0  0  0  0  0  0  0
  162.4335   43.3570  145.9916 C   0  0  1  0  0  0  0  0  0  0  0  0
  162.2518   42.1364  146.7126 O   0  0  0  0  0  0  0  0  0  0  0  0
  161.3824   43.3766  144.8840 C   0  0  1  0  0  0  0  0  0  0  0  0
  161.8726   43.9717  143.6832 O   0  0  0  0  0  0  0  0  0  0  0  0
  161.0858   41.9008  144.6943 C   0  0  1  0  0  0  0  0  0  0  0  0
  162.0018   41.3129  143.7663 O   0  0  0  0  0  0  0  0  0  0  0  0
  161.3363   41.2638  146.0452 C   0  0  2  0  0  0  0  0  0  0  0  0
  160.0690   41.2213  146.8162 N   0  0  0  0  0  0  0  0  0  0  0  0
  159.0069   42.0295  146.6281 C   0  0  0  0  0  0  0  0  0  0  0  0
  157.9884   41.7364  147.4836 N   0  0  0  0  0  0  0  0  0  0  0  0
  158.3943   40.7071  148.2439 C   0  0  0  0  0  0  0  0  0  0  0  0
  157.8219   39.9059  149.3557 C   0  0  0  0  0  0  0  0  0  0  0  0
  156.6704   40.1038  149.7994 O   0  0  0  0  0  0  0  0  0  0  0  0
  158.5772   38.9307  149.8638 N   0  0  0  0  0  0  0  0  0  0  0  0
  159.8168   38.6745  149.4183 C   0  0  0  0  0  0  0  0  0  0  0  0
  160.4929   37.6792  150.0112 N   0  0  0  0  0  0  0  0  0  0  0  0
  160.4104   39.3648  148.4166 N   0  0  0  0  0  0  0  0  0  0  0  0
  159.7633   40.3760  147.8001 C   0  0  0  0  0  0  0  0  0  0  0  0
  1  3  2  6  0  0  0
  1 32  1  0  0  0  0
  1  2  1  0  0  0  0
  1  4  1  0  0  0  0
  4  5  1  0  0  0  0
  6  5  1  6  0  0  0
  7  6  1  0  0  0  0
  8  6  1  0  0  0  0
  8 10  1  0  0  0  0
  8  9  1  1  0  0  0
 10 11  1  1  0  0  0
 12 13  1  6  0  0  0
 12  7  1  0  0  0  0
 12 10  1  0  0  0  0
 14 13  1  0  0  0  0
 15 16  1  0  0  0  0
 15 14  2  0  0  0  0
 16 23  2  0  0  0  0
 17 16  1  0  0  0  0
 17 19  1  0  0  0  0
 18 17  2  0  0  0  0
 19 20  2  0  0  0  0
 20 22  1  0  0  0  0
 20 21  1  0  0  0  0
 23 13  1  0  0  0  0
 23 22  1  0  0  0  0
 24 25  2  1  0  0  0
 24  9  1  0  0  0  0
 24 26  1  0  0  0  0
 27 28  1  0  0  0  0
 27 24  1  0  0  0  0
 29 30  1  1  0  0  0
 29 28  1  0  0  0  0
 31 32  1  6  0  0  0
 31 29  1  0  0  0  0
 33 34  1  6  0  0  0
 33 35  1  0  0  0  0
 33 31  1  0  0  0  0
 35 36  1  1  0  0  0
 35 30  1  0  0  0  0
 36 37  1  0  0  0  0
 38 37  2  0  0  0  0
 39 38  1  0  0  0  0
 40 41  2  0  0  0  0
 40 39  1  0  0  0  0
 42 40  1  0  0  0  0
 43 42  2  0  0  0  0
 43 45  1  0  0  0  0
 44 43  1  0  0  0  0
 45 46  1  0  0  0  0
 46 39  2  0  0  0  0
 46 36  1  0  0  0  0
M  END
>  <CHROM.1>
-33.25781865,91.19863625,159.01132445,44.23271551,146.06872181,-1.87344288
-0.25586641,2.56795946

>  <Name>
lig.pdb

>  <RI>
0

>  <Rbt.Current_Directory>
/home/itssahil/PROJECTS/Mol_Feturizer/New_Systems/rnas/4yb0

>  <Rbt.Executable>
rbdock ($Id: //depot/dev/client3/rdock/2013.1/src/exe/rbdock.cxx#4 $)

>  <Rbt.Library>
libRbt.so (2013.1, Build901 2013/11/27)

>  <Rbt.Parameter_File>
/export/apps/rDock/src/rDock_2013.1_src/data/scripts/dock_solv.prm

>  <Rbt.Receptor>
prm/pocket_docking_7.prm

>  <SCORE>
-25.4596

>  <SCORE.INTER>
-26.4555

>  <SCORE.INTER.CONST>
1

>  <SCORE.INTER.POLAR>
0

>  <SCORE.INTER.ROT>
2

>  <SCORE.INTER.SOLV>
20.2264

>  <SCORE.INTER.VDW>
-29.3125

>  <SCORE.INTER.norm>
-0.57512

>  <SCORE.INTRA>
0.995904

>  <SCORE.INTRA.DIHEDRAL>
0.0436771

>  <SCORE.INTRA.DIHEDRAL.0>
4.74153

>  <SCORE.INTRA.POLAR>
0

>  <SCORE.INTRA.POLAR.0>
0

>  <SCORE.INTRA.REPUL>
0.0159883

>  <SCORE.INTRA.REPUL.0>
0

>  <SCORE.INTRA.SOLV>
-0.0184365

>  <SCORE.INTRA.SOLV.lig_0>
-60.4375

>  <SCORE.INTRA.VDW>
0.903342

>  <SCORE.INTRA.VDW.0>
-1.83689

>  <SCORE.INTRA.norm>
0.0216501

>  <SCORE.RESTR>
0

>  <SCORE.RESTR.CAVITY>
0

>  <SCORE.RESTR.norm>
0

>  <SCORE.SYSTEM>
0

>  <SCORE.SYSTEM.CONST>
0

>  <SCORE.SYSTEM.DIHEDRAL>
0

>  <SCORE.SYSTEM.SOLV>
0

>  <SCORE.SYSTEM.norm>
0

>  <SCORE.heavy>
46

>  <SCORE.norm>
-0.55347

>  <RMSD>
5.098

$$$$
lig.pdb
 OpenBabel11021811523D
libRbt.so/2013.1/901 2013/11/27
 46 52  0  0  0  0  0  0  0  0999 V2000
  160.8068   44.5754  142.6149 P   0  0  2  0  0  0  0  0  0  0  0  0
  161.5314   45.2302  141.4592 O   0  0  0  0  0  0  0  0  0  0  0  0
  159.8394   43.4724  142.2705 O   0  0  0  0  0  0  0  0  0  0  0  0
  160.0334   45.6632  143.5115 O   0  0  0  0  0  0  0  0  0  0  0  0
  160.2295   47.0585  143.3225 C   0  0  0  0  0  0  0  0  0  0  0  0
  159.7048   47.8249  144.5254 C   0  0  1  0  0  0  0  0  0  0  0  0
  158.4553   48.3994  144.1696 O   0  0  0  0  0  0  0  0  0  0  0  0
  159.4508   46.9943  145.7770 C   0  0  1  0  0  0  0  0  0  0  0  0
  160.4941   47.2125  146.7152 O   0  0  0  0  0  0  0  0  0  0  0  0
  158.1796   47.5878  146.3417 C   0  0  1  0  0  0  0  0  0  0  0  0
  158.5044   48.6472  147.2441 O   0  0  0  0  0  0  0  0  0  0  0  0
  157.4709   48.2120  145.1748 C   0  0  2  0  0  0  0  0  0  0  0  0
  156.4472   47.2687  144.6658 N   0  0  0  0  0  0  0  0  0  0  0  0
  156.0374   47.1714  143.3891 C   0  0  0  0  0  0  0  0  0  0  0  0
  155.0804   46.2205  143.2662 N   0  0  0  0  0  0  0  0  0  0  0  0
  154.8622   45.6894  144.4824 C   0  0  0  0  0  0  0  0  0  0  0  0
  153.9837   44.6408  145.0520 C   0  0  0  0  0  0  0  0  0  0  0  0
  153.1852   44.0149  144.3140 O   0  0  0  0  0  0  0  0  0  0  0  0
  154.0739   44.3938  146.3701 N   0  0  0  0  0  0  0  0  0  0  0  0
  154.9315   45.0694  147.1582 C   0  0  0  0  0  0  0  0  0  0  0  0
  154.9829   44.7753  148.4766 N   0  0  0  0  0  0  0  0  0  0  0  0
  155.7597   46.0370  146.7038 N   0  0  0  0  0  0  0  0  0  0  0  0
  155.7700   46.3856  145.3994 C   0  0  0  0  0  0  0  0  0  0  0  0
  160.7063   46.3001  148.0413 P   0  0  2  0  0  0  0  0  0  0  0  0
  159.3903   46.1698  148.7690 O   0  0  0  0  0  0  0  0  0  0  0  0
  161.9327   46.8552  148.7410 O   0  0  0  0  0  0  0  0  0  0  0  0
  161.0576   44.8537  147.4136 O   0  0  0  0  0  0  0  0  0  0  0  0
  162.3770   44.5783  146.9449 C   0  0  0  0  0  0  0  0  0  0  0  0
  162.4390   43.3865  145.9845 C   0  0  1  0  0  0  0  0  0  0  0  0
  162.2663   42.1750  146.7228 O   0  0  0  0  0  0  0  0  0  0  0  0
  161.3813   43.3874  144.8830 C   0  0  1  0  0  0  0  0  0  0  0  0
  161.8622   43.9682  143.6715 O   0  0  0  0  0  0  0  0  0  0  0  0
  161.0893   41.9080  144.7148 C   0  0  1  0  0  0  0  0  0  0  0  0
  162.0022   41.3113  143.7893 O   0  0  0  0  0  0  0  0  0  0  0  0
  161.3502   41.2901  146.0726 C   0  0  2  0  0  0  0  0  0  0  0  0
  160.0876   41.2532  146.8515 N   0  0  0  0  0  0  0  0  0  0  0  0
  159.0548   42.1084  146.7157 C   0  0  0  0  0  0  0  0  0  0  0  0
  158.0322   41.8078  147.5637 N   0  0  0  0  0  0  0  0  0  0  0  0
  158.4051   40.7255  148.2650 C   0  0  0  0  0  0  0  0  0  0  0  0
  157.8113   39.8880  149.3381 C   0  0  0  0  0  0  0  0  0  0  0  0
  156.6709   40.1040  149.8019 O   0  0  0  0  0  0  0  0  0  0  0  0
  158.5335   38.8602  149.7873 N   0  0  0  0  0  0  0  0  0  0  0  0
  159.7597   38.5829  149.3178 C   0  0  0  0  0  0  0  0  0  0  0  0
  160.4026   37.5335  149.8514 N   0  0  0  0  0  0  0  0  0  0  0  0
  160.3713   39.3031  148.3486 N   0  0  0  0  0  0  0  0  0  0  0  0
  159.7577   40.3685  147.7922 C   0  0  0  0  0  0  0  0  0  0  0  0
  1  3  2  6  0  0  0
  1 32  1  0  0  0  0
  1  2  1  0  0  0  0
  1  4  1  0  0  0  0
  4  5  1  0  0  0  0
  6  5  1  6  0  0  0
  7  6  1  0  0  0  0
  8  6  1  0  0  0  0
  8 10  1  0  0  0  0
  8  9  1  1  0  0  0
 10 11  1  1  0  0  0
 12 13  1  6  0  0  0
 12  7  1  0  0  0  0
 12 10  1  0  0  0  0
 14 13  1  0  0  0  0
 15 16  1  0  0  0  0
 15 14  2  0  0  0  0
 16 23  2  0  0  0  0
 17 16  1  0  0  0  0
 17 19  1  0  0  0  0
 18 17  2  0  0  0  0
 19 20  2  0  0  0  0
 20 22  1  0  0  0  0
 20 21  1  0  0  0  0
 23 13  1  0  0  0  0
 23 22  1  0  0  0  0
 24 25  2  1  0  0  0
 24  9  1  0  0  0  0
 24 26  1  0  0  0  0
 27 28  1  0  0  0  0
 27 24  1  0  0  0  0
 29 30  1  1  0  0  0
 29 28  1  0  0  0  0
 31 32  1  6  0  0  0
 31 29  1  0  0  0  0
 33 34  1  6  0  0  0
 33 35  1  0  0  0  0
 33 31  1  0  0  0  0
 35 36  1  1  0  0  0
 35 30  1  0  0  0  0
 36 37  1  0  0  0  0
 38 37  2  0  0  0  0
 39 38  1  0  0  0  0
 40 41  2  0  0  0  0
 40 39  1  0  0  0  0
 42 40  1  0  0  0  0
 43 42  2  0  0  0  0
 43 45  1  0  0  0  0
 44 43  1  0  0  0  0
 45 46  1  0  0  0  0
 46 39  2  0  0  0  0
 46 36  1  0  0  0  0
M  END
>  <CHROM.1>
-34.05284061,86.74593598,159.00747355,44.23246426,146.05320245,-1.85929552
-0.25207516,2.57996842

>  <Name>
lig.pdb

>  <RI>
0

>  <Rbt.Current_Directory>
/home/itssahil/PROJECTS/Mol_Feturizer/New_Systems/rnas/4yb0

>  <Rbt.Executable>
rbdock ($Id: //depot/dev/client3/rdock/2013.1/src/exe/rbdock.cxx#4 $)

>  <Rbt.Library>
libRbt.so (2013.1, Build901 2013/11/27)

>  <Rbt.Parameter_File>
/export/apps/rDock/src/rDock_2013.1_src/data/scripts/dock_solv.prm

>  <Rbt.Receptor>
prm/pocket_docking_8.prm

>  <SCORE>
-25.3749

>  <SCORE.INTER>
-26.2909

>  <SCORE.INTER.CONST>
1

>  <SCORE.INTER.POLAR>
0

>  <SCORE.INTER.ROT>
2

>  <SCORE.INTER.SOLV>
20.2535

>  <SCORE.INTER.VDW>
-29.2118

>  <SCORE.INTER.norm>
-0.571542

>  <SCORE.INTRA>
0.916007

>  <SCORE.INTRA.DIHEDRAL>
0.0444616

>  <SCORE.INTRA.DIHEDRAL.0>
4.74153

>  <SCORE.INTRA.POLAR>
0

>  <SCORE.INTRA.POLAR.0>
0

>  <SCORE.INTRA.REPUL>
0.0153789

>  <SCORE.INTRA.REPUL.0>
0

>  <SCORE.INTRA.SOLV>
0.0150496

>  <SCORE.INTRA.SOLV.lig_0>
-60.4375

>  <SCORE.INTRA.VDW>
0.809357

>  <SCORE.INTRA.VDW.0>
-1.83689

>  <SCORE.INTRA.norm>
0.0199132

>  <SCORE.RESTR>
0

>  <SCORE.RESTR.CAVITY>
0

>  <SCORE.RESTR.norm>
0

>  <SCORE.SYSTEM>
0

>  <SCORE.SYSTEM.CONST>
0

>  <SCORE.SYSTEM.DIHEDRAL>
0

>  <SCORE.SYSTEM.SOLV>
0

>  <SCORE.SYSTEM.norm>
0

>  <SCORE.heavy>
46

>  <SCORE.norm>
-0.551628

>  <RMSD>
5.100

$$$$
lig.pdb
 OpenBabel11021811523D
libRbt.so/2013.1/901 2013/11/27
 46 52  0  0  0  0  0  0  0  0999 V2000
  160.3224   46.4446  148.2634 P   0  0  2  0  0  0  0  0  0  0  0  0
  161.5117   46.7309  149.1541 O   0  0  0  0  0  0  0  0  0  0  0  0
  158.9782   46.3491  148.9380 O   0  0  0  0  0  0  0  0  0  0  0  0
  160.5487   45.1088  147.3977 O   0  0  0  0  0  0  0  0  0  0  0  0
  161.8105   44.4555  147.3533 C   0  0  0  0  0  0  0  0  0  0  0  0
  161.8526   43.4848  146.1847 C   0  0  1  0  0  0  0  0  0  0  0  0
  161.6848   42.1710  146.6984 O   0  0  0  0  0  0  0  0  0  0  0  0
  160.7673   43.6723  145.1322 C   0  0  1  0  0  0  0  0  0  0  0  0
  161.3174   44.3050  143.9860 O   0  0  0  0  0  0  0  0  0  0  0  0
  160.3950   42.2563  144.7538 C   0  0  1  0  0  0  0  0  0  0  0  0
  161.2164   41.8176  143.6698 O   0  0  0  0  0  0  0  0  0  0  0  0
  160.7544   41.4119  145.9417 C   0  0  2  0  0  0  0  0  0  0  0  0
  159.5425   41.1898  146.7655 N   0  0  0  0  0  0  0  0  0  0  0  0
  158.3659   41.8224  146.6147 C   0  0  0  0  0  0  0  0  0  0  0  0
  157.4730   41.3967  147.5402 N   0  0  0  0  0  0  0  0  0  0  0  0
  158.0771   40.4719  148.3074 C   0  0  0  0  0  0  0  0  0  0  0  0
  157.6987   39.6242  149.4625 C   0  0  0  0  0  0  0  0  0  0  0  0
  156.5450   39.6976  149.9499 O   0  0  0  0  0  0  0  0  0  0  0  0
  158.6274   38.7896  149.9599 N   0  0  0  0  0  0  0  0  0  0  0  0
  159.8648   38.7158  149.4342 C   0  0  0  0  0  0  0  0  0  0  0  0
  160.7568   37.8545  149.9725 N   0  0  0  0  0  0  0  0  0  0  0  0
  160.2752   39.4598  148.3822 N   0  0  0  0  0  0  0  0  0  0  0  0
  159.4418   40.3402  147.7876 C   0  0  0  0  0  0  0  0  0  0  0  0
  160.4131   44.9089  142.7804 P   0  0  2  0  0  0  0  0  0  0  0  0
  159.4037   43.8723  142.3507 O   0  0  0  0  0  0  0  0  0  0  0  0
  161.3879   45.5082  141.7840 O   0  0  0  0  0  0  0  0  0  0  0  0
  159.6033   46.0969  143.5168 O   0  0  0  0  0  0  0  0  0  0  0  0
  160.2339   47.3557  143.7494 C   0  0  0  0  0  0  0  0  0  0  0  0
  159.5384   48.1877  144.8314 C   0  0  1  0  0  0  0  0  0  0  0  0
  158.3119   48.7069  144.3129 O   0  0  0  0  0  0  0  0  0  0  0  0
  159.1911   47.4269  146.1092 C   0  0  1  0  0  0  0  0  0  0  0  0
  160.1967   47.5660  147.1119 O   0  0  0  0  0  0  0  0  0  0  0  0
  157.8889   48.0817  146.5307 C   0  0  1  0  0  0  0  0  0  0  0  0
  158.1379   49.2411  147.3304 O   0  0  0  0  0  0  0  0  0  0  0  0
  157.2388   48.5479  145.2448 C   0  0  2  0  0  0  0  0  0  0  0  0
  156.3222   47.4946  144.7422 N   0  0  0  0  0  0  0  0  0  0  0  0
  155.9591   47.3165  143.4565 C   0  0  0  0  0  0  0  0  0  0  0  0
  155.1160   46.2569  143.3095 N   0  0  0  0  0  0  0  0  0  0  0  0
  154.9303   45.7270  144.5289 C   0  0  0  0  0  0  0  0  0  0  0  0
  154.1493   44.5998  145.0991 C   0  0  0  0  0  0  0  0  0  0  0  0
  153.4506   43.8437  144.3905 O   0  0  0  0  0  0  0  0  0  0  0  0
  154.2346   44.3954  146.4147 N   0  0  0  0  0  0  0  0  0  0  0  0
  154.9756   45.1748  147.2173 C   0  0  0  0  0  0  0  0  0  0  0  0
  154.9779   44.8870  148.5274 N   0  0  0  0  0  0  0  0  0  0  0  0
  155.7070   46.2245  146.7752 N   0  0  0  0  0  0  0  0  0  0  0  0
  155.7249   46.5475  145.4649 C   0  0  0  0  0  0  0  0  0  0  0  0
  1  3  2  1  0  0  0
  1 32  1  0  0  0  0
  1  2  1  0  0  0  0
  1  4  1  0  0  0  0
  4  5  1  0  0  0  0
  6  5  1  1  0  0  0
  7  6  1  0  0  0  0
  8  6  1  0  0  0  0
  8 10  1  0  0  0  0
  8  9  1  6  0  0  0
 10 11  1  6  0  0  0
 12 13  1  1  0  0  0
 12  7  1  0  0  0  0
 12 10  1  0  0  0  0
 14 13  1  0  0  0  0
 15 16  1  0  0  0  0
 15 14  2  0  0  0  0
 16 23  2  0  0  0  0
 17 16  1  0  0  0  0
 17 19  1  0  0  0  0
 18 17  2  0  0  0  0
 19 20  2  0  0  0  0
 20 22  1  0  0  0  0
 20 21  1  0  0  0  0
 23 13  1  0  0  0  0
 23 22  1  0  0  0  0
 24 25  2  6  0  0  0
 24  9  1  0  0  0  0
 24 26  1  0  0  0  0
 27 28  1  0  0  0  0
 27 24  1  0  0  0  0
 29 30  1  6  0  0  0
 29 28  1  0  0  0  0
 31 32  1  1  0  0  0
 31 29  1  0  0  0  0
 33 34  1  1  0  0  0
 33 35  1  0  0  0  0
 33 31  1  0  0  0  0
 35 36  1  6  0  0  0
 35 30  1  0  0  0  0
 36 37  1  0  0  0  0
 38 37  2  0  0  0  0
 39 38  1  0  0  0  0
 40 41  2  0  0  0  0
 40 39  1  0  0  0  0
 42 40  1  0  0  0  0
 43 42  2  0  0  0  0
 43 45  1  0  0  0  0
 44 43  1  0  0  0  0
 45 46  1  0  0  0  0
 46 39  2  0  0  0  0
 46 36  1  0  0  0  0
M  END
>  <CHROM.1>
104.70665787,-39.61677746,158.74141089,44.37923263,146.17757945,-1.76841038
-0.24196063,2.62200479

>  <Name>
lig.pdb

>  <RI>
0

>  <Rbt.Current_Directory>
/home/itssahil/PROJECTS/Mol_Feturizer/New_Systems/rnas/4yb0

>  <Rbt.Executable>
rbdock ($Id: //depot/dev/client3/rdock/2013.1/src/exe/rbdock.cxx#4 $)

>  <Rbt.Library>
libRbt.so (2013.1, Build901 2013/11/27)

>  <Rbt.Parameter_File>
/export/apps/rDock/src/rDock_2013.1_src/data/scripts/dock_solv.prm

>  <Rbt.Receptor>
prm/pocket_docking_5.prm

>  <SCORE>
-22.3501

>  <SCORE.INTER>
-23.3887

>  <SCORE.INTER.CONST>
1

>  <SCORE.INTER.POLAR>
0

>  <SCORE.INTER.ROT>
2

>  <SCORE.INTER.SOLV>
19.7319

>  <SCORE.INTER.VDW>
-27.1031

>  <SCORE.INTER.norm>
-0.508449

>  <SCORE.INTRA>
1.03857

>  <SCORE.INTRA.DIHEDRAL>
0.0388343

>  <SCORE.INTRA.DIHEDRAL.0>
4.74153

>  <SCORE.INTRA.POLAR>
0

>  <SCORE.INTRA.POLAR.0>
0

>  <SCORE.INTRA.REPUL>
0

>  <SCORE.INTRA.REPUL.0>
0

>  <SCORE.INTRA.SOLV>
0.0598941

>  <SCORE.INTRA.SOLV.lig_0>
-60.4375

>  <SCORE.INTRA.VDW>
0.989204

>  <SCORE.INTRA.VDW.0>
-1.83689

>  <SCORE.INTRA.norm>
0.0225776

>  <SCORE.RESTR>
0

>  <SCORE.RESTR.CAVITY>
0

>  <SCORE.RESTR.norm>
0

>  <SCORE.SYSTEM>
0

>  <SCORE.SYSTEM.CONST>
0

>  <SCORE.SYSTEM.DIHEDRAL>
0

>  <SCORE.SYSTEM.SOLV>
0

>  <SCORE.SYSTEM.norm>
0

>  <SCORE.heavy>
46

>  <SCORE.norm>
-0.485871

>  <RMSD>
5.103

$$$$
lig.pdb
 OpenBabel11021811523D
libRbt.so/2013.1/901 2013/11/27
 46 52  0  0  0  0  0  0  0  0999 V2000
  160.8124   44.5835  142.6381 P   0  0  2  0  0  0  0  0  0  0  0  0
  161.5404   45.2476  141.4898 O   0  0  0  0  0  0  0  0  0  0  0  0
  159.8425   43.4865  142.2817 O   0  0  0  0  0  0  0  0  0  0  0  0
  160.0408   45.6645  143.5443 O   0  0  0  0  0  0  0  0  0  0  0  0
  160.2409   47.0610  143.3693 C   0  0  0  0  0  0  0  0  0  0  0  0
  159.7166   47.8170  144.5790 C   0  0  1  0  0  0  0  0  0  0  0  0
  158.4691   48.3984  144.2272 O   0  0  0  0  0  0  0  0  0  0  0  0
  159.4586   46.9749  145.8220 C   0  0  1  0  0  0  0  0  0  0  0  0
  160.5013   47.1811  146.7637 O   0  0  0  0  0  0  0  0  0  0  0  0
  158.1883   47.5663  146.3908 C   0  0  1  0  0  0  0  0  0  0  0  0
  158.5147   48.6159  147.3040 O   0  0  0  0  0  0  0  0  0  0  0  0
  157.4828   48.2038  145.2292 C   0  0  2  0  0  0  0  0  0  0  0  0
  156.4573   47.2683  144.7096 N   0  0  0  0  0  0  0  0  0  0  0  0
  156.0577   47.1763  143.4293 C   0  0  0  0  0  0  0  0  0  0  0  0
  155.0955   46.2320  143.2963 N   0  0  0  0  0  0  0  0  0  0  0  0
  154.8635   45.6999  144.5095 C   0  0  0  0  0  0  0  0  0  0  0  0
  153.9734   44.6559  145.0695 C   0  0  0  0  0  0  0  0  0  0  0  0
  153.1770   44.0369  144.3235 O   0  0  0  0  0  0  0  0  0  0  0  0
  154.0509   44.4056  146.3878 N   0  0  0  0  0  0  0  0  0  0  0  0
  154.9062   45.0740  147.1845 C   0  0  0  0  0  0  0  0  0  0  0  0
  154.9445   44.7769  148.5027 N   0  0  0  0  0  0  0  0  0  0  0  0
  155.7446   46.0371  146.7391 N   0  0  0  0  0  0  0  0  0  0  0  0
  155.7681   46.3883  145.4356 C   0  0  0  0  0  0  0  0  0  0  0  0
  160.7092   46.2551  148.0811 P   0  0  2  0  0  0  0  0  0  0  0  0
  159.3919   46.1213  148.8057 O   0  0  0  0  0  0  0  0  0  0  0  0
  161.9362   46.8000  148.7878 O   0  0  0  0  0  0  0  0  0  0  0  0
  161.0574   44.8140  147.4397 O   0  0  0  0  0  0  0  0  0  0  0  0
  162.3767   44.5396  146.9700 C   0  0  0  0  0  0  0  0  0  0  0  0
  162.4369   43.3571  145.9980 C   0  0  1  0  0  0  0  0  0  0  0  0
  162.2598   42.1389  146.7242 O   0  0  0  0  0  0  0  0  0  0  0  0
  161.3807   43.3717  144.8952 C   0  0  1  0  0  0  0  0  0  0  0  0
  161.8648   43.9630  143.6902 O   0  0  0  0  0  0  0  0  0  0  0  0
  161.0849   41.8949  144.7121 C   0  0  1  0  0  0  0  0  0  0  0  0
  161.9974   41.3048  143.7820 O   0  0  0  0  0  0  0  0  0  0  0  0
  161.3423   41.2629  146.0641 C   0  0  2  0  0  0  0  0  0  0  0  0
  160.0785   41.2218  146.8410 N   0  0  0  0  0  0  0  0  0  0  0  0
  159.0241   42.0438  146.6709 C   0  0  0  0  0  0  0  0  0  0  0  0
  158.0069   41.7482  147.5273 N   0  0  0  0  0  0  0  0  0  0  0  0
  158.4058   40.7030  148.2693 C   0  0  0  0  0  0  0  0  0  0  0  0
  157.8307   39.8907  149.3716 C   0  0  0  0  0  0  0  0  0  0  0  0
  156.6836   40.0937  149.8244 O   0  0  0  0  0  0  0  0  0  0  0  0
  158.5782   38.8998  149.8606 N   0  0  0  0  0  0  0  0  0  0  0  0
  159.8127   38.6376  149.4046 C   0  0  0  0  0  0  0  0  0  0  0  0
  160.4812   37.6262  149.9785 N   0  0  0  0  0  0  0  0  0  0  0  0
  160.4085   39.3371  148.4106 N   0  0  0  0  0  0  0  0  0  0  0  0
  159.7689   40.3645  147.8133 C   0  0  0  0  0  0  0  0  0  0  0  0
  1  3  2  6  0  0  0
  1 32  1  0  0  0  0
  1  2  1  0  0  0  0
  1  4  1  0  0  0  0
  4  5  1  0  0  0  0
  6  5  1  6  0  0  0
  7  6  1  0  0  0  0
  8  6  1  0  0  0  0
  8 10  1  0  0  0  0
  8  9  1  1  0  0  0
 10 11  1  1  0  0  0
 12 13  1  6  0  0  0
 12  7  1  0  0  0  0
 12 10  1  0  0  0  0
 14 13  1  0  0  0  0
 15 16  1  0  0  0  0
 15 14  2  0  0  0  0
 16 23  2  0  0  0  0
 17 16  1  0  0  0  0
 17 19  1  0  0  0  0
 18 17  2  0  0  0  0
 19 20  2  0  0  0  0
 20 22  1  0  0  0  0
 20 21  1  0  0  0  0
 23 13  1  0  0  0  0
 23 22  1  0  0  0  0
 24 25  2  1  0  0  0
 24  9  1  0  0  0  0
 24 26  1  0  0  0  0
 27 28  1  0  0  0  0
 27 24  1  0  0  0  0
 29 30  1  1  0  0  0
 29 28  1  0  0  0  0
 31 32  1  6  0  0  0
 31 29  1  0  0  0  0
 33 34  1  6  0  0  0
 33 35  1  0  0  0  0
 33 31  1  0  0  0  0
 35 36  1  1  0  0  0
 35 30  1  0  0  0  0
 36 37  1  0  0  0  0
 38 37  2  0  0  0  0
 39 38  1  0  0  0  0
 40 41  2  0  0  0  0
 40 39  1  0  0  0  0
 42 40  1  0  0  0  0
 43 42  2  0  0  0  0
 43 45  1  0  0  0  0
 44 43  1  0  0  0  0
 45 46  1  0  0  0  0
 46 39  2  0  0  0  0
 46 36  1  0  0  0  0
M  END
>  <CHROM.1>
-33.41118572,89.91988155,159.01197283,44.22441070,146.08295232,-1.87142351
-0.25737500,2.57127202

>  <Name>
lig.pdb

>  <RI>
0

>  <Rbt.Current_Directory>
/home/itssahil/PROJECTS/Mol_Feturizer/New_Systems/rnas/4yb0

>  <Rbt.Executable>
rbdock ($Id: //depot/dev/client3/rdock/2013.1/src/exe/rbdock.cxx#4 $)

>  <Rbt.Library>
libRbt.so (2013.1, Build901 2013/11/27)

>  <Rbt.Parameter_File>
/export/apps/rDock/src/rDock_2013.1_src/data/scripts/dock_solv.prm

>  <Rbt.Receptor>
prm/pocket_docking_6.prm

>  <SCORE>
-25.3875

>  <SCORE.INTER>
-26.3599

>  <SCORE.INTER.CONST>
1

>  <SCORE.INTER.POLAR>
0

>  <SCORE.INTER.ROT>
2

>  <SCORE.INTER.SOLV>
20.2277

>  <SCORE.INTER.VDW>
-29.2492

>  <SCORE.INTER.norm>
-0.573042

>  <SCORE.INTRA>
0.972409

>  <SCORE.INTRA.DIHEDRAL>
0.0436059

>  <SCORE.INTRA.DIHEDRAL.0>
4.74153

>  <SCORE.INTRA.POLAR>
0

>  <SCORE.INTRA.POLAR.0>
0

>  <SCORE.INTRA.REPUL>
0.0159027

>  <SCORE.INTRA.REPUL.0>
0

>  <SCORE.INTRA.SOLV>
-0.00964541

>  <SCORE.INTRA.SOLV.lig_0>
-60.4375

>  <SCORE.INTRA.VDW>
0.875915

>  <SCORE.INTRA.VDW.0>
-1.83689

>  <SCORE.INTRA.norm>
0.0211393

>  <SCORE.RESTR>
0

>  <SCORE.RESTR.CAVITY>
0

>  <SCORE.RESTR.norm>
0

>  <SCORE.SYSTEM>
0

>  <SCORE.SYSTEM.CONST>
0

>  <SCORE.SYSTEM.DIHEDRAL>
0

>  <SCORE.SYSTEM.SOLV>
0

>  <SCORE.SYSTEM.norm>
0

>  <SCORE.heavy>
46

>  <SCORE.norm>
-0.551903

>  <RMSD>
5.106

$$$$
lig.pdb
 OpenBabel11021811523D
libRbt.so/2013.1/901 2013/11/27
 46 52  0  0  0  0  0  0  0  0999 V2000
  160.7478   44.4652  142.5892 P   0  0  2  0  0  0  0  0  0  0  0  0
  161.4627   45.1012  141.4170 O   0  0  0  0  0  0  0  0  0  0  0  0
  159.7723   43.3616  142.2702 O   0  0  0  0  0  0  0  0  0  0  0  0
  159.9886   45.5682  143.4791 O   0  0  0  0  0  0  0  0  0  0  0  0
  160.1884   46.9600  143.2691 C   0  0  0  0  0  0  0  0  0  0  0  0
  159.6798   47.7448  144.4671 C   0  0  1  0  0  0  0  0  0  0  0  0
  158.4288   48.3197  144.1169 O   0  0  0  0  0  0  0  0  0  0  0  0
  159.4358   46.9323  145.7325 C   0  0  1  0  0  0  0  0  0  0  0  0
  160.4901   47.1588  146.6565 O   0  0  0  0  0  0  0  0  0  0  0  0
  158.1733   47.5388  146.3026 C   0  0  1  0  0  0  0  0  0  0  0  0
  158.5120   48.6088  147.1871 O   0  0  0  0  0  0  0  0  0  0  0  0
  157.4545   48.1501  145.1351 C   0  0  2  0  0  0  0  0  0  0  0  0
  156.4216   47.2043  144.6499 N   0  0  0  0  0  0  0  0  0  0  0  0
  155.9697   47.1182  143.3867 C   0  0  0  0  0  0  0  0  0  0  0  0
  155.0165   46.1610  143.2850 N   0  0  0  0  0  0  0  0  0  0  0  0
  154.8436   45.6144  144.5016 C   0  0  0  0  0  0  0  0  0  0  0  0
  153.9930   44.5522  145.0883 C   0  0  0  0  0  0  0  0  0  0  0  0
  153.1749   43.9283  144.3703 O   0  0  0  0  0  0  0  0  0  0  0  0
  154.1296   44.2910  146.3996 N   0  0  0  0  0  0  0  0  0  0  0  0
  155.0081   44.9645  147.1662 C   0  0  0  0  0  0  0  0  0  0  0  0
  155.1062   44.6559  148.4786 N   0  0  0  0  0  0  0  0  0  0  0  0
  155.8129   45.9440  146.6954 N   0  0  0  0  0  0  0  0  0  0  0  0
  155.7764   46.3075  145.3956 C   0  0  0  0  0  0  0  0  0  0  0  0
  160.7127   46.2635  147.9925 P   0  0  2  0  0  0  0  0  0  0  0  0
  159.4042   46.1486  148.7359 O   0  0  0  0  0  0  0  0  0  0  0  0
  161.9489   46.8227  148.6714 O   0  0  0  0  0  0  0  0  0  0  0  0
  161.0514   44.8073  147.3808 O   0  0  0  0  0  0  0  0  0  0  0  0
  162.3645   44.5199  146.9017 C   0  0  0  0  0  0  0  0  0  0  0  0
  162.4113   43.3150  145.9569 C   0  0  1  0  0  0  0  0  0  0  0  0
  162.2416   42.1143  146.7134 O   0  0  0  0  0  0  0  0  0  0  0  0
  161.3419   43.3055  144.8669 C   0  0  1  0  0  0  0  0  0  0  0  0
  161.8121   43.8678  143.6426 O   0  0  0  0  0  0  0  0  0  0  0  0
  161.0421   41.8252  144.7219 C   0  0  1  0  0  0  0  0  0  0  0  0
  161.9424   41.2122  143.7949 O   0  0  0  0  0  0  0  0  0  0  0  0
  161.3150   41.2246  146.0851 C   0  0  2  0  0  0  0  0  0  0  0  0
  160.0607   41.2036  146.8779 N   0  0  0  0  0  0  0  0  0  0  0  0
  159.0169   42.0415  146.7203 C   0  0  0  0  0  0  0  0  0  0  0  0
  158.0063   41.7623  147.5897 N   0  0  0  0  0  0  0  0  0  0  0  0
  158.3985   40.7118  148.3279 C   0  0  0  0  0  0  0  0  0  0  0  0
  157.8250   39.9095  149.4383 C   0  0  0  0  0  0  0  0  0  0  0  0
  156.6869   40.1305  149.9053 O   0  0  0  0  0  0  0  0  0  0  0  0
  158.5634   38.9077  149.9189 N   0  0  0  0  0  0  0  0  0  0  0  0
  159.7879   38.6262  149.4477 C   0  0  0  0  0  0  0  0  0  0  0  0
  160.4481   37.6052  150.0142 N   0  0  0  0  0  0  0  0  0  0  0  0
  160.3816   39.3155  148.4454 N   0  0  0  0  0  0  0  0  0  0  0  0
  159.7503   40.3520  147.8550 C   0  0  0  0  0  0  0  0  0  0  0  0
  1  3  2  6  0  0  0
  1 32  1  0  0  0  0
  1  2  1  0  0  0  0
  1  4  1  0  0  0  0
  4  5  1  0  0  0  0
  6  5  1  6  0  0  0
  7  6  1  0  0  0  0
  8  6  1  0  0  0  0
  8 10  1  0  0  0  0
  8  9  1  1  0  0  0
 10 11  1  1  0  0  0
 12 13  1  6  0  0  0
 12  7  1  0  0  0  0
 12 10  1  0  0  0  0
 14 13  1  0  0  0  0
 15 16  1  0  0  0  0
 15 14  2  0  0  0  0
 16 23  2  0  0  0  0
 17 16  1  0  0  0  0
 17 19  1  0  0  0  0
 18 17  2  0  0  0  0
 19 20  2  0  0  0  0
 20 22  1  0  0  0  0
 20 21  1  0  0  0  0
 23 13  1  0  0  0  0
 23 22  1  0  0  0  0
 24 25  2  1  0  0  0
 24  9  1  0  0  0  0
 24 26  1  0  0  0  0
 27 28  1  0  0  0  0
 27 24  1  0  0  0  0
 29 30  1  1  0  0  0
 29 28  1  0  0  0  0
 31 32  1  6  0  0  0
 31 29  1  0  0  0  0
 33 34  1  6  0  0  0
 33 35  1  0  0  0  0
 33 31  1  0  0  0  0
 35 36  1  1  0  0  0
 35 30  1  0  0  0  0
 36 37  1  0  0  0  0
 38 37  2  0  0  0  0
 39 38  1  0  0  0  0
 40 41  2  0  0  0  0
 40 39  1  0  0  0  0
 42 40  1  0  0  0  0
 43 42  2  0  0  0  0
 43 45  1  0  0  0  0
 44 43  1  0  0  0  0
 45 46  1  0  0  0  0
 46 39  2  0  0  0  0
 46 36  1  0  0  0  0
M  END
>  <CHROM.1>
-36.12171557,88.41492660,158.99604410,44.17403240,146.05500139,-1.85612527
-0.25957508,2.55684580

>  <Name>
lig.pdb

>  <RI>
0

>  <Rbt.Current_Directory>
/home/itssahil/PROJECTS/Mol_Feturizer/New_Systems/rnas/4yb0

>  <Rbt.Executable>
rbdock ($Id: //depot/dev/client3/rdock/2013.1/src/exe/rbdock.cxx#4 $)

>  <Rbt.Library>
libRbt.so (2013.1, Build901 2013/11/27)

>  <Rbt.Parameter_File>
/export/apps/rDock/src/rDock_2013.1_src/data/scripts/dock_solv.prm

>  <Rbt.Receptor>
prm/pocket_docking_7.prm

>  <SCORE>
-25.1816

>  <SCORE.INTER>
-26.1036

>  <SCORE.INTER.CONST>
1

>  <SCORE.INTER.POLAR>
0

>  <SCORE.INTER.ROT>
2

>  <SCORE.INTER.SOLV>
20.1573

>  <SCORE.INTER.VDW>
-29.0549

>  <SCORE.INTER.norm>
-0.56747

>  <SCORE.INTRA>
0.921987

>  <SCORE.INTRA.DIHEDRAL>
0.0424526

>  <SCORE.INTRA.DIHEDRAL.0>
4.74153

>  <SCORE.INTRA.POLAR>
0

>  <SCORE.INTRA.POLAR.0>
0

>  <SCORE.INTRA.REPUL>
0.0111431

>  <SCORE.INTRA.REPUL.0>
0

>  <SCORE.INTRA.SOLV>
0.0482155

>  <SCORE.INTRA.SOLV.lig_0>
-60.4375

>  <SCORE.INTRA.VDW>
0.820938

>  <SCORE.INTRA.VDW.0>
-1.83689

>  <SCORE.INTRA.norm>
0.0200432

>  <SCORE.RESTR>
0

>  <SCORE.RESTR.CAVITY>
0

>  <SCORE.RESTR.norm>
0

>  <SCORE.SYSTEM>
0

>  <SCORE.SYSTEM.CONST>
0

>  <SCORE.SYSTEM.DIHEDRAL>
0

>  <SCORE.SYSTEM.SOLV>
0

>  <SCORE.SYSTEM.norm>
0

>  <SCORE.heavy>
46

>  <SCORE.norm>
-0.547427

>  <RMSD>
5.134

$$$$
lig.pdb
 OpenBabel11021811523D
libRbt.so/2013.1/901 2013/11/27
 46 52  0  0  0  0  0  0  0  0999 V2000
  160.8847   44.9583  142.5028 P   0  0  2  0  0  0  0  0  0  0  0  0
  161.5794   45.7104  141.3886 O   0  0  0  0  0  0  0  0  0  0  0  0
  159.9471   43.8523  142.0919 O   0  0  0  0  0  0  0  0  0  0  0  0
  160.0879   45.9599  143.4759 O   0  0  0  0  0  0  0  0  0  0  0  0
  160.2413   47.3700  143.3798 C   0  0  0  0  0  0  0  0  0  0  0  0
  159.7052   48.0381  144.6352 C   0  0  1  0  0  0  0  0  0  0  0  0
  158.4362   48.5975  144.3276 O   0  0  0  0  0  0  0  0  0  0  0  0
  159.4870   47.1183  145.8298 C   0  0  1  0  0  0  0  0  0  0  0  0
  160.5319   47.3042  146.7733 O   0  0  0  0  0  0  0  0  0  0  0  0
  158.2041   47.6344  146.4421 C   0  0  1  0  0  0  0  0  0  0  0  0
  158.5057   48.6401  147.4114 O   0  0  0  0  0  0  0  0  0  0  0  0
  157.4668   48.3138  145.3249 C   0  0  2  0  0  0  0  0  0  0  0  0
  156.4667   47.3765  144.7608 N   0  0  0  0  0  0  0  0  0  0  0  0
  156.0949   47.3110  143.4705 C   0  0  0  0  0  0  0  0  0  0  0  0
  155.1503   46.3561  143.2940 N   0  0  0  0  0  0  0  0  0  0  0  0
  154.9017   45.7901  144.4884 C   0  0  0  0  0  0  0  0  0  0  0  0
  154.0165   44.7192  145.0035 C   0  0  0  0  0  0  0  0  0  0  0  0
  153.2453   44.1073  144.2258 O   0  0  0  0  0  0  0  0  0  0  0  0
  154.0708   44.4369  146.3165 N   0  0  0  0  0  0  0  0  0  0  0  0
  154.8992   45.0976  147.1473 C   0  0  0  0  0  0  0  0  0  0  0  0
  154.9150   44.7679  148.4582 N   0  0  0  0  0  0  0  0  0  0  0  0
  155.7316   46.0840  146.7437 N   0  0  0  0  0  0  0  0  0  0  0  0
  155.7764   46.4683  145.4501 C   0  0  0  0  0  0  0  0  0  0  0  0
  160.7827   46.3117  148.0335 P   0  0  2  0  0  0  0  0  0  0  0  0
  159.4778   46.0937  148.7600 O   0  0  0  0  0  0  0  0  0  0  0  0
  161.9986   46.8551  148.7603 O   0  0  0  0  0  0  0  0  0  0  0  0
  161.1706   44.9218  147.3075 O   0  0  0  0  0  0  0  0  0  0  0  0
  162.4932   44.7179  146.8120 C   0  0  0  0  0  0  0  0  0  0  0  0
  162.5815   43.5956  145.7732 C   0  0  1  0  0  0  0  0  0  0  0  0
  162.4511   42.3327  146.4297 O   0  0  0  0  0  0  0  0  0  0  0  0
  161.5144   43.6387  144.6818 C   0  0  1  0  0  0  0  0  0  0  0  0
  161.9671   44.3134  143.5088 O   0  0  0  0  0  0  0  0  0  0  0  0
  161.2644   42.1658  144.4165 C   0  0  1  0  0  0  0  0  0  0  0  0
  162.1860   41.6600  143.4466 O   0  0  0  0  0  0  0  0  0  0  0  0
  161.5555   41.4663  145.7278 C   0  0  2  0  0  0  0  0  0  0  0  0
  160.3017   41.3396  146.5114 N   0  0  0  0  0  0  0  0  0  0  0  0
  159.0519   41.4065  146.0112 C   0  0  0  0  0  0  0  0  0  0  0  0
  158.1083   41.2407  146.9794 N   0  0  0  0  0  0  0  0  0  0  0  0
  158.7595   41.0543  148.1385 C   0  0  0  0  0  0  0  0  0  0  0  0
  158.3790   40.8315  149.5567 C   0  0  0  0  0  0  0  0  0  0  0  0
  157.1874   40.7524  149.9254 O   0  0  0  0  0  0  0  0  0  0  0  0
  159.3654   40.6899  150.4436 N   0  0  0  0  0  0  0  0  0  0  0  0
  160.6600   40.7605  150.0971 C   0  0  0  0  0  0  0  0  0  0  0  0
  161.5692   40.6180  151.0729 N   0  0  0  0  0  0  0  0  0  0  0  0
  161.0858   40.9694  148.8293 N   0  0  0  0  0  0  0  0  0  0  0  0
  160.2003   41.1227  147.8225 C   0  0  0  0  0  0  0  0  0  0  0  0
  1  3  2  6  0  0  0
  1 32  1  0  0  0  0
  1  2  1  0  0  0  0
  1  4  1  0  0  0  0
  4  5  1  0  0  0  0
  6  5  1  6  0  0  0
  7  6  1  0  0  0  0
  8  6  1  0  0  0  0
  8 10  1  0  0  0  0
  8  9  1  1  0  0  0
 10 11  1  1  0  0  0
 12 13  1  6  0  0  0
 12  7  1  0  0  0  0
 12 10  1  0  0  0  0
 14 13  1  0  0  0  0
 15 16  1  0  0  0  0
 15 14  2  0  0  0  0
 16 23  2  0  0  0  0
 17 16  1  0  0  0  0
 17 19  1  0  0  0  0
 18 17  2  0  0  0  0
 19 20  2  0  0  0  0
 20 22  1  0  0  0  0
 20 21  1  0  0  0  0
 23 13  1  0  0  0  0
 23 22  1  0  0  0  0
 24 25  2  1  0  0  0
 24  9  1  0  0  0  0
 24 26  1  0  0  0  0
 27 28  1  0  0  0  0
 27 24  1  0  0  0  0
 29 30  1  1  0  0  0
 29 28  1  0  0  0  0
 31 32  1  6  0  0  0
 31 29  1  0  0  0  0
 33 34  1  6  0  0  0
 33 35  1  0  0  0  0
 33 31  1  0  0  0  0
 35 36  1  1  0  0  0
 35 30  1  0  0  0  0
 36 37  1  0  0  0  0
 38 37  2  0  0  0  0
 39 38  1  0  0  0  0
 40 41  2  0  0  0  0
 40 39  1  0  0  0  0
 42 40  1  0  0  0  0
 43 42  2  0  0  0  0
 43 45  1  0  0  0  0
 44 43  1  0  0  0  0
 45 46  1  0  0  0  0
 46 39  2  0  0  0  0
 46 36  1  0  0  0  0
M  END
>  <CHROM.1>
-30.70587050,135.13113857,159.17062944,44.55811970,146.05134402,-2.10631404
-0.28511516,2.35939207

>  <Name>
lig.pdb

>  <RI>
0

>  <Rbt.Current_Directory>
/home/itssahil/PROJECTS/Mol_Feturizer/New_Systems/rnas/4yb0

>  <Rbt.Executable>
rbdock ($Id: //depot/dev/client3/rdock/2013.1/src/exe/rbdock.cxx#4 $)

>  <Rbt.Library>
libRbt.so (2013.1, Build901 2013/11/27)

>  <Rbt.Parameter_File>
/export/apps/rDock/src/rDock_2013.1_src/data/scripts/dock_solv.prm

>  <Rbt.Receptor>
prm/pocket_docking_6.prm

>  <SCORE>
-24.0674

>  <SCORE.INTER>
-25.3455

>  <SCORE.INTER.CONST>
1

>  <SCORE.INTER.POLAR>
0

>  <SCORE.INTER.ROT>
2

>  <SCORE.INTER.SOLV>
18.7884

>  <SCORE.INTER.VDW>
-28.0931

>  <SCORE.INTER.norm>
-0.550989

>  <SCORE.INTRA>
1.27805

>  <SCORE.INTRA.DIHEDRAL>
0.145955

>  <SCORE.INTRA.DIHEDRAL.0>
4.74153

>  <SCORE.INTRA.POLAR>
0

>  <SCORE.INTRA.POLAR.0>
0

>  <SCORE.INTRA.REPUL>
0.0459368

>  <SCORE.INTRA.REPUL.0>
0

>  <SCORE.INTRA.SOLV>
0.0757719

>  <SCORE.INTRA.SOLV.lig_0>
-60.4375

>  <SCORE.INTRA.VDW>
0.937506

>  <SCORE.INTRA.VDW.0>
-1.83689

>  <SCORE.INTRA.norm>
0.0277838

>  <SCORE.RESTR>
0

>  <SCORE.RESTR.CAVITY>
0

>  <SCORE.RESTR.norm>
0

>  <SCORE.SYSTEM>
0

>  <SCORE.SYSTEM.CONST>
0

>  <SCORE.SYSTEM.DIHEDRAL>
0

>  <SCORE.SYSTEM.SOLV>
0

>  <SCORE.SYSTEM.norm>
0

>  <SCORE.heavy>
46

>  <SCORE.norm>
-0.523205

>  <RMSD>
5.167

$$$$
lig.pdb
 OpenBabel11021811523D
libRbt.so/2013.1/901 2013/11/27
 46 52  0  0  0  0  0  0  0  0999 V2000
  160.4650   46.3902  148.2205 P   0  0  2  0  0  0  0  0  0  0  0  0
  161.6708   46.6638  149.0927 O   0  0  0  0  0  0  0  0  0  0  0  0
  159.1350   46.2755  148.9198 O   0  0  0  0  0  0  0  0  0  0  0  0
  160.6789   45.0729  147.3238 O   0  0  0  0  0  0  0  0  0  0  0  0
  161.9422   44.4260  147.2411 C   0  0  0  0  0  0  0  0  0  0  0  0
  161.9645   43.4789  146.0527 C   0  0  1  0  0  0  0  0  0  0  0  0
  161.8121   42.1545  146.5432 O   0  0  0  0  0  0  0  0  0  0  0  0
  160.8576   43.6828  145.0261 C   0  0  1  0  0  0  0  0  0  0  0  0
  161.3820   44.3405  143.8820 O   0  0  0  0  0  0  0  0  0  0  0  0
  160.4832   42.2730  144.6269 C   0  0  1  0  0  0  0  0  0  0  0  0
  161.2843   41.8595  143.5182 O   0  0  0  0  0  0  0  0  0  0  0  0
  160.8696   41.4066  145.7903 C   0  0  2  0  0  0  0  0  0  0  0  0
  159.6753   41.1630  146.6336 N   0  0  0  0  0  0  0  0  0  0  0  0
  158.3973   41.2513  146.2260 C   0  0  0  0  0  0  0  0  0  0  0  0
  157.5505   40.9817  147.2486 N   0  0  0  0  0  0  0  0  0  0  0  0
  158.2883   40.7139  148.3408 C   0  0  0  0  0  0  0  0  0  0  0  0
  158.0206   40.3504  149.7522 C   0  0  0  0  0  0  0  0  0  0  0  0
  156.8408   40.2368  150.1633 O   0  0  0  0  0  0  0  0  0  0  0  0
  159.0759   40.1535  150.5609 N   0  0  0  0  0  0  0  0  0  0  0  0
  160.3403   40.2782  150.1152 C   0  0  0  0  0  0  0  0  0  0  0  0
  161.3632   40.0636  150.9725 N   0  0  0  0  0  0  0  0  0  0  0  0
  160.6545   40.6071  148.8416 N   0  0  0  0  0  0  0  0  0  0  0  0
  159.6892   40.8337  147.9251 C   0  0  0  0  0  0  0  0  0  0  0  0
  160.4514   44.9645  142.7070 P   0  0  2  0  0  0  0  0  0  0  0  0
  159.4375   43.9323  142.2770 O   0  0  0  0  0  0  0  0  0  0  0  0
  161.4036   45.5876  141.7036 O   0  0  0  0  0  0  0  0  0  0  0  0
  159.6520   46.1341  143.4832 O   0  0  0  0  0  0  0  0  0  0  0  0
  160.2823   47.3907  143.7282 C   0  0  0  0  0  0  0  0  0  0  0  0
  159.6055   48.1980  144.8404 C   0  0  1  0  0  0  0  0  0  0  0  0
  158.3668   48.7223  144.3570 O   0  0  0  0  0  0  0  0  0  0  0  0
  159.2868   47.4105  146.1094 C   0  0  1  0  0  0  0  0  0  0  0  0
  160.3119   47.5338  147.0944 O   0  0  0  0  0  0  0  0  0  0  0  0
  157.9909   48.0512  146.5699 C   0  0  1  0  0  0  0  0  0  0  0  0
  158.2515   49.1954  147.3875 O   0  0  0  0  0  0  0  0  0  0  0  0
  157.3134   48.5401  145.3068 C   0  0  2  0  0  0  0  0  0  0  0  0
  156.3908   47.4932  144.8017 N   0  0  0  0  0  0  0  0  0  0  0  0
  156.0266   47.3203  143.5156 C   0  0  0  0  0  0  0  0  0  0  0  0
  155.1777   46.2658  143.3661 N   0  0  0  0  0  0  0  0  0  0  0  0
  154.9892   45.7339  144.5842 C   0  0  0  0  0  0  0  0  0  0  0  0
  154.2020   44.6096  145.1516 C   0  0  0  0  0  0  0  0  0  0  0  0
  153.4990   43.8592  144.4412 O   0  0  0  0  0  0  0  0  0  0  0  0
  154.2863   44.4014  146.4666 N   0  0  0  0  0  0  0  0  0  0  0  0
  155.0317   45.1747  147.2711 C   0  0  0  0  0  0  0  0  0  0  0  0
  155.0325   44.8836  148.5805 N   0  0  0  0  0  0  0  0  0  0  0  0
  155.7688   46.2215  146.8316 N   0  0  0  0  0  0  0  0  0  0  0  0
  155.7884   46.5476  145.5221 C   0  0  0  0  0  0  0  0  0  0  0  0
  1  3  2  1  0  0  0
  1 32  1  0  0  0  0
  1  2  1  0  0  0  0
  1  4  1  0  0  0  0
  4  5  1  0  0  0  0
  6  5  1  1  0  0  0
  7  6  1  0  0  0  0
  8  6  1  0  0  0  0
  8 10  1  0  0  0  0
  8  9  1  6  0  0  0
 10 11  1  6  0  0  0
 12 13  1  1  0  0  0
 12  7  1  0  0  0  0
 12 10  1  0  0  0  0
 14 13  1  0  0  0  0
 15 16  1  0  0  0  0
 15 14  2  0  0  0  0
 16 23  2  0  0  0  0
 17 16  1  0  0  0  0
 17 19  1  0  0  0  0
 18 17  2  0  0  0  0
 19 20  2  0  0  0  0
 20 22  1  0  0  0  0
 20 21  1  0  0  0  0
 23 13  1  0  0  0  0
 23 22  1  0  0  0  0
 24 25  2  6  0  0  0
 24  9  1  0  0  0  0
 24 26  1  0  0  0  0
 27 28  1  0  0  0  0
 27 24  1  0  0  0  0
 29 30  1  6  0  0  0
 29 28  1  0  0  0  0
 31 32  1  1  0  0  0
 31 29  1  0  0  0  0
 33 34  1  1  0  0  0
 33 35  1  0  0  0  0
 33 31  1  0  0  0  0
 35 36  1  6  0  0  0
 35 30  1  0  0  0  0
 36 37  1  0  0  0  0
 38 37  2  0  0  0  0
 39 38  1  0  0  0  0
 40 41  2  0  0  0  0
 40 39  1  0  0  0  0
 42 40  1  0  0  0  0
 43 42  2  0  0  0  0
 43 45  1  0  0  0  0
 44 43  1  0  0  0  0
 45 46  1  0  0  0  0
 46 39  2  0  0  0  0
 46 36  1  0  0  0  0
M  END
>  <CHROM.1>
137.88259630,-38.00184245,158.86945013,44.52292346,146.20938013,-1.28814534
0.27519092,-0.66838189

>  <Name>
lig.pdb

>  <RI>
0

>  <Rbt.Current_Directory>
/home/itssahil/PROJECTS/Mol_Feturizer/New_Systems/rnas/4yb0

>  <Rbt.Executable>
rbdock ($Id: //depot/dev/client3/rdock/2013.1/src/exe/rbdock.cxx#4 $)

>  <Rbt.Library>
libRbt.so (2013.1, Build901 2013/11/27)

>  <Rbt.Parameter_File>
/export/apps/rDock/src/rDock_2013.1_src/data/scripts/dock_solv.prm

>  <Rbt.Receptor>
prm/pocket_docking_5.prm

>  <SCORE>
-21.2022

>  <SCORE.INTER>
-22.4234

>  <SCORE.INTER.CONST>
1

>  <SCORE.INTER.POLAR>
0

>  <SCORE.INTER.ROT>
2

>  <SCORE.INTER.SOLV>
18.371

>  <SCORE.INTER.VDW>
-26.0059

>  <SCORE.INTER.norm>
-0.487466

>  <SCORE.INTRA>
1.2212

>  <SCORE.INTRA.DIHEDRAL>
-0.0331975

>  <SCORE.INTRA.DIHEDRAL.0>
4.74153

>  <SCORE.INTRA.POLAR>
0

>  <SCORE.INTRA.POLAR.0>
0

>  <SCORE.INTRA.REPUL>
0.0649875

>  <SCORE.INTRA.REPUL.0>
0

>  <SCORE.INTRA.SOLV>
0.194966

>  <SCORE.INTRA.SOLV.lig_0>
-60.4375

>  <SCORE.INTRA.VDW>
0.81538

>  <SCORE.INTRA.VDW.0>
-1.83689

>  <SCORE.INTRA.norm>
0.0265479

>  <SCORE.RESTR>
0

>  <SCORE.RESTR.CAVITY>
0

>  <SCORE.RESTR.norm>
0

>  <SCORE.SYSTEM>
0

>  <SCORE.SYSTEM.CONST>
0

>  <SCORE.SYSTEM.DIHEDRAL>
0

>  <SCORE.SYSTEM.SOLV>
0

>  <SCORE.SYSTEM.norm>
0

>  <SCORE.heavy>
46

>  <SCORE.norm>
-0.460918

>  <RMSD>
5.193

$$$$
lig.pdb
 OpenBabel11021811523D
libRbt.so/2013.1/901 2013/11/27
 46 52  0  0  0  0  0  0  0  0999 V2000
  160.4981   46.3633  148.2302 P   0  0  2  0  0  0  0  0  0  0  0  0
  161.7028   46.6246  149.1078 O   0  0  0  0  0  0  0  0  0  0  0  0
  159.1619   46.2779  148.9217 O   0  0  0  0  0  0  0  0  0  0  0  0
  160.6954   45.0341  147.3474 O   0  0  0  0  0  0  0  0  0  0  0  0
  161.9480   44.3651  147.2791 C   0  0  0  0  0  0  0  0  0  0  0  0
  161.9618   43.4065  146.0999 C   0  0  1  0  0  0  0  0  0  0  0  0
  161.7838   42.0896  146.6018 O   0  0  0  0  0  0  0  0  0  0  0  0
  160.8652   43.6194  145.0641 C   0  0  1  0  0  0  0  0  0  0  0  0
  161.4082   44.2572  143.9174 O   0  0  0  0  0  0  0  0  0  0  0  0
  160.4695   42.2124  144.6757 C   0  0  1  0  0  0  0  0  0  0  0  0
  161.2706   41.7749  143.5763 O   0  0  0  0  0  0  0  0  0  0  0  0
  160.8335   41.3507  145.8497 C   0  0  2  0  0  0  0  0  0  0  0  0
  159.6299   41.1354  146.6874 N   0  0  0  0  0  0  0  0  0  0  0  0
  158.3636   41.4013  146.3223 C   0  0  0  0  0  0  0  0  0  0  0  0
  157.5049   41.1039  147.3270 N   0  0  0  0  0  0  0  0  0  0  0  0
  158.2227   40.6370  148.3640 C   0  0  0  0  0  0  0  0  0  0  0  0
  157.9342   40.1422  149.7308 C   0  0  0  0  0  0  0  0  0  0  0  0
  156.7537   40.1038  150.1536 O   0  0  0  0  0  0  0  0  0  0  0  0
  158.9721   39.7454  150.4870 N   0  0  0  0  0  0  0  0  0  0  0  0
  160.2375   39.7900  150.0290 C   0  0  0  0  0  0  0  0  0  0  0  0
  161.2418   39.3734  150.8323 N   0  0  0  0  0  0  0  0  0  0  0  0
  160.5701   40.2299  148.7943 N   0  0  0  0  0  0  0  0  0  0  0  0
  159.6237   40.6593  147.9323 C   0  0  0  0  0  0  0  0  0  0  0  0
  160.4959   44.8857  142.7304 P   0  0  2  0  0  0  0  0  0  0  0  0
  159.4675   43.8668  142.3034 O   0  0  0  0  0  0  0  0  0  0  0  0
  161.4651   45.4830  141.7275 O   0  0  0  0  0  0  0  0  0  0  0  0
  159.7116   46.0760  143.4903 O   0  0  0  0  0  0  0  0  0  0  0  0
  160.3616   47.3240  143.7277 C   0  0  0  0  0  0  0  0  0  0  0  0
  159.6914   48.1532  144.8277 C   0  0  1  0  0  0  0  0  0  0  0  0
  158.4650   48.6938  144.3312 O   0  0  0  0  0  0  0  0  0  0  0  0
  159.3512   47.3833  146.1018 C   0  0  1  0  0  0  0  0  0  0  0  0
  160.3718   47.4985  147.0924 O   0  0  0  0  0  0  0  0  0  0  0  0
  158.0634   48.0502  146.5477 C   0  0  1  0  0  0  0  0  0  0  0  0
  158.3381   49.1976  147.3563 O   0  0  0  0  0  0  0  0  0  0  0  0
  157.4025   48.5386  145.2757 C   0  0  2  0  0  0  0  0  0  0  0  0
  156.4656   47.5028  144.7743 N   0  0  0  0  0  0  0  0  0  0  0  0
  156.0972   47.3317  143.4892 C   0  0  0  0  0  0  0  0  0  0  0  0
  155.2342   46.2880  143.3433 N   0  0  0  0  0  0  0  0  0  0  0  0
  155.0407   45.7614  144.5629 C   0  0  0  0  0  0  0  0  0  0  0  0
  154.2397   44.6488  145.1341 C   0  0  0  0  0  0  0  0  0  0  0  0
  153.5258   43.9061  144.4264 O   0  0  0  0  0  0  0  0  0  0  0  0
  154.3232   44.4425  146.4494 N   0  0  0  0  0  0  0  0  0  0  0  0
  155.0799   45.2078  147.2510 C   0  0  0  0  0  0  0  0  0  0  0  0
  155.0789   44.9197  148.5611 N   0  0  0  0  0  0  0  0  0  0  0  0
  155.8300   46.2438  146.8080 N   0  0  0  0  0  0  0  0  0  0  0  0
  155.8519   46.5667  145.4978 C   0  0  0  0  0  0  0  0  0  0  0  0
  1  3  2  1  0  0  0
  1 32  1  0  0  0  0
  1  2  1  0  0  0  0
  1  4  1  0  0  0  0
  4  5  1  0  0  0  0
  6  5  1  1  0  0  0
  7  6  1  0  0  0  0
  8  6  1  0  0  0  0
  8 10  1  0  0  0  0
  8  9  1  6  0  0  0
 10 11  1  6  0  0  0
 12 13  1  1  0  0  0
 12  7  1  0  0  0  0
 12 10  1  0  0  0  0
 14 13  1  0  0  0  0
 15 16  1  0  0  0  0
 15 14  2  0  0  0  0
 16 23  2  0  0  0  0
 17 16  1  0  0  0  0
 17 19  1  0  0  0  0
 18 17  2  0  0  0  0
 19 20  2  0  0  0  0
 20 22  1  0  0  0  0
 20 21  1  0  0  0  0
 23 13  1  0  0  0  0
 23 22  1  0  0  0  0
 24 25  2  6  0  0  0
 24  9  1  0  0  0  0
 24 26  1  0  0  0  0
 27 28  1  0  0  0  0
 27 24  1  0  0  0  0
 29 30  1  6  0  0  0
 29 28  1  0  0  0  0
 31 32  1  1  0  0  0
 31 29  1  0  0  0  0
 33 34  1  1  0  0  0
 33 35  1  0  0  0  0
 33 31  1  0  0  0  0
 35 36  1  6  0  0  0
 35 30  1  0  0  0  0
 36 37  1  0  0  0  0
 38 37  2  0  0  0  0
 39 38  1  0  0  0  0
 40 41  2  0  0  0  0
 40 39  1  0  0  0  0
 42 40  1  0  0  0  0
 43 42  2  0  0  0  0
 43 45  1  0  0  0  0
 44 43  1  0  0  0  0
 45 46  1  0  0  0  0
 46 39  2  0  0  0  0
 46 36  1  0  0  0  0
M  END
>  <CHROM.1>
129.05062725,-38.65864760,158.88517054,44.45586917,146.21144120,-1.81885931
-0.27301319,2.50950722

>  <Name>
lig.pdb

>  <RI>
0

>  <Rbt.Current_Directory>
/home/itssahil/PROJECTS/Mol_Feturizer/New_Systems/rnas/4yb0

>  <Rbt.Executable>
rbdock ($Id: //depot/dev/client3/rdock/2013.1/src/exe/rbdock.cxx#4 $)

>  <Rbt.Library>
libRbt.so (2013.1, Build901 2013/11/27)

>  <Rbt.Parameter_File>
/export/apps/rDock/src/rDock_2013.1_src/data/scripts/dock_solv.prm

>  <Rbt.Receptor>
prm/pocket_docking_5.prm

>  <SCORE>
-21.3796

>  <SCORE.INTER>
-22.6097

>  <SCORE.INTER.CONST>
1

>  <SCORE.INTER.POLAR>
0

>  <SCORE.INTER.ROT>
2

>  <SCORE.INTER.SOLV>
18.551

>  <SCORE.INTER.VDW>
-26.1901

>  <SCORE.INTER.norm>
-0.491515

>  <SCORE.INTRA>
1.23009

>  <SCORE.INTRA.DIHEDRAL>
-0.0165597

>  <SCORE.INTRA.DIHEDRAL.0>
4.74153

>  <SCORE.INTRA.POLAR>
0

>  <SCORE.INTRA.POLAR.0>
0

>  <SCORE.INTRA.REPUL>
0.0362392

>  <SCORE.INTRA.REPUL.0>
0

>  <SCORE.INTRA.SOLV>
0.130186

>  <SCORE.INTRA.SOLV.lig_0>
-60.4375

>  <SCORE.INTRA.VDW>
0.992085

>  <SCORE.INTRA.VDW.0>
-1.83689

>  <SCORE.INTRA.norm>
0.0267412

>  <SCORE.RESTR>
0

>  <SCORE.RESTR.CAVITY>
0

>  <SCORE.RESTR.norm>
0

>  <SCORE.SYSTEM>
0

>  <SCORE.SYSTEM.CONST>
0

>  <SCORE.SYSTEM.DIHEDRAL>
0

>  <SCORE.SYSTEM.SOLV>
0

>  <SCORE.SYSTEM.norm>
0

>  <SCORE.heavy>
46

>  <SCORE.norm>
-0.464773

>  <RMSD>
5.204

$$$$
lig.pdb
 OpenBabel11021811523D
libRbt.so/2013.1/901 2013/11/27
 46 52  0  0  0  0  0  0  0  0999 V2000
  160.6218   46.4103  148.1128 P   0  0  2  0  0  0  0  0  0  0  0  0
  161.8450   46.6790  148.9621 O   0  0  0  0  0  0  0  0  0  0  0  0
  159.3040   46.3065  148.8365 O   0  0  0  0  0  0  0  0  0  0  0  0
  160.8111   45.0888  147.2169 O   0  0  0  0  0  0  0  0  0  0  0  0
  162.0685   44.4335  147.1135 C   0  0  0  0  0  0  0  0  0  0  0  0
  162.0632   43.4824  145.9281 C   0  0  1  0  0  0  0  0  0  0  0  0
  161.9114   42.1606  146.4258 O   0  0  0  0  0  0  0  0  0  0  0  0
  160.9392   43.6901  144.9210 C   0  0  1  0  0  0  0  0  0  0  0  0
  161.4471   44.3407  143.7654 O   0  0  0  0  0  0  0  0  0  0  0  0
  160.5487   42.2815  144.5334 C   0  0  1  0  0  0  0  0  0  0  0  0
  161.3270   41.8592  143.4118 O   0  0  0  0  0  0  0  0  0  0  0  0
  160.9506   41.4164  145.6925 C   0  0  2  0  0  0  0  0  0  0  0  0
  159.7703   41.1832  146.5581 N   0  0  0  0  0  0  0  0  0  0  0  0
  158.4867   41.2245  146.1605 C   0  0  0  0  0  0  0  0  0  0  0  0
  157.6561   40.9812  147.2026 N   0  0  0  0  0  0  0  0  0  0  0  0
  158.4101   40.7784  148.2977 C   0  0  0  0  0  0  0  0  0  0  0  0
  158.1642   40.4714  149.7264 C   0  0  0  0  0  0  0  0  0  0  0  0
  156.9913   40.3493  150.1544 O   0  0  0  0  0  0  0  0  0  0  0  0
  159.2314   40.3341  150.5319 N   0  0  0  0  0  0  0  0  0  0  0  0
  160.4883   40.4676  150.0679 C   0  0  0  0  0  0  0  0  0  0  0  0
  161.5239   40.3140  150.9231 N   0  0  0  0  0  0  0  0  0  0  0  0
  160.7828   40.7471  148.7780 N   0  0  0  0  0  0  0  0  0  0  0  0
  159.8040   40.9114  147.8626 C   0  0  0  0  0  0  0  0  0  0  0  0
  160.4993   44.9668  142.6054 P   0  0  2  0  0  0  0  0  0  0  0  0
  159.4713   43.9398  142.1972 O   0  0  0  0  0  0  0  0  0  0  0  0
  161.4372   45.5806  141.5828 O   0  0  0  0  0  0  0  0  0  0  0  0
  159.7216   46.1441  143.3919 O   0  0  0  0  0  0  0  0  0  0  0  0
  160.3642   47.3974  143.6213 C   0  0  0  0  0  0  0  0  0  0  0  0
  159.7128   48.2126  144.7428 C   0  0  1  0  0  0  0  0  0  0  0  0
  158.4690   48.7433  144.2801 O   0  0  0  0  0  0  0  0  0  0  0  0
  159.4122   47.4313  146.0200 C   0  0  1  0  0  0  0  0  0  0  0  0
  160.4557   47.5512  146.9858 O   0  0  0  0  0  0  0  0  0  0  0  0
  158.1289   48.0818  146.5017 C   0  0  1  0  0  0  0  0  0  0  0  0
  158.4115   49.2270  147.3106 O   0  0  0  0  0  0  0  0  0  0  0  0
  157.4317   48.5710  145.2494 C   0  0  2  0  0  0  0  0  0  0  0  0
  156.4936   47.5284  144.7646 N   0  0  0  0  0  0  0  0  0  0  0  0
  156.1039   47.3546  143.4862 C   0  0  0  0  0  0  0  0  0  0  0  0
  155.2460   46.3048  143.3554 N   0  0  0  0  0  0  0  0  0  0  0  0
  155.0776   45.7769  144.5783 C   0  0  0  0  0  0  0  0  0  0  0  0
  154.2948   44.6587  145.1635 C   0  0  0  0  0  0  0  0  0  0  0  0
  153.5739   43.9108  144.4684 O   0  0  0  0  0  0  0  0  0  0  0  0
  154.4029   44.4532  146.4771 N   0  0  0  0  0  0  0  0  0  0  0  0
  155.1680   45.2240  147.2653 C   0  0  0  0  0  0  0  0  0  0  0  0
  155.1921   44.9360  148.5752 N   0  0  0  0  0  0  0  0  0  0  0  0
  155.9028   46.2653  146.8092 N   0  0  0  0  0  0  0  0  0  0  0  0
  155.8994   46.5881  145.4988 C   0  0  0  0  0  0  0  0  0  0  0  0
  1  3  2  1  0  0  0
  1 32  1  0  0  0  0
  1  2  1  0  0  0  0
  1  4  1  0  0  0  0
  4  5  1  0  0  0  0
  6  5  1  1  0  0  0
  7  6  1  0  0  0  0
  8  6  1  0  0  0  0
  8 10  1  0  0  0  0
  8  9  1  6  0  0  0
 10 11  1  6  0  0  0
 12 13  1  1  0  0  0
 12  7  1  0  0  0  0
 12 10  1  0  0  0  0
 14 13  1  0  0  0  0
 15 16  1  0  0  0  0
 15 14  2  0  0  0  0
 16 23  2  0  0  0  0
 17 16  1  0  0  0  0
 17 19  1  0  0  0  0
 18 17  2  0  0  0  0
 19 20  2  0  0  0  0
 20 22  1  0  0  0  0
 20 21  1  0  0  0  0
 23 13  1  0  0  0  0
 23 22  1  0  0  0  0
 24 25  2  6  0  0  0
 24  9  1  0  0  0  0
 24 26  1  0  0  0  0
 27 28  1  0  0  0  0
 27 24  1  0  0  0  0
 29 30  1  6  0  0  0
 29 28  1  0  0  0  0
 31 32  1  1  0  0  0
 31 29  1  0  0  0  0
 33 34  1  1  0  0  0
 33 35  1  0  0  0  0
 33 31  1  0  0  0  0
 35 36  1  6  0  0  0
 35 30  1  0  0  0  0
 36 37  1  0  0  0  0
 38 37  2  0  0  0  0
 39 38  1  0  0  0  0
 40 41  2  0  0  0  0
 40 39  1  0  0  0  0
 42 40  1  0  0  0  0
 43 42  2  0  0  0  0
 43 45  1  0  0  0  0
 44 43  1  0  0  0  0
 45 46  1  0  0  0  0
 46 39  2  0  0  0  0
 46 36  1  0  0  0  0
M  END
>  <CHROM.1>
140.78506893,-38.07930163,158.97812795,44.56207827,146.14068295,-1.27795764
0.29513454,-0.68599923

>  <Name>
lig.pdb

>  <RI>
0

>  <Rbt.Current_Directory>
/home/itssahil/PROJECTS/Mol_Feturizer/New_Systems/rnas/4yb0

>  <Rbt.Executable>
rbdock ($Id: //depot/dev/client3/rdock/2013.1/src/exe/rbdock.cxx#4 $)

>  <Rbt.Library>
libRbt.so (2013.1, Build901 2013/11/27)

>  <Rbt.Parameter_File>
/export/apps/rDock/src/rDock_2013.1_src/data/scripts/dock_solv.prm

>  <Rbt.Receptor>
prm/pocket_docking_7.prm

>  <SCORE>
-21.2194

>  <SCORE.INTER>
-22.4141

>  <SCORE.INTER.CONST>
1

>  <SCORE.INTER.POLAR>
0

>  <SCORE.INTER.ROT>
2

>  <SCORE.INTER.SOLV>
17.9144

>  <SCORE.INTER.VDW>
-25.8475

>  <SCORE.INTER.norm>
-0.487262

>  <SCORE.INTRA>
1.19469

>  <SCORE.INTRA.DIHEDRAL>
-0.0366611

>  <SCORE.INTRA.DIHEDRAL.0>
4.74153

>  <SCORE.INTRA.POLAR>
0

>  <SCORE.INTRA.POLAR.0>
0

>  <SCORE.INTRA.REPUL>
0.0711036

>  <SCORE.INTRA.REPUL.0>
0

>  <SCORE.INTRA.SOLV>
0.216241

>  <SCORE.INTRA.SOLV.lig_0>
-60.4375

>  <SCORE.INTRA.VDW>
0.749377

>  <SCORE.INTRA.VDW.0>
-1.83689

>  <SCORE.INTRA.norm>
0.0259714

>  <SCORE.RESTR>
0

>  <SCORE.RESTR.CAVITY>
0

>  <SCORE.RESTR.norm>
0

>  <SCORE.SYSTEM>
0

>  <SCORE.SYSTEM.CONST>
0

>  <SCORE.SYSTEM.DIHEDRAL>
0

>  <SCORE.SYSTEM.SOLV>
0

>  <SCORE.SYSTEM.norm>
0

>  <SCORE.heavy>
46

>  <SCORE.norm>
-0.461291

>  <RMSD>
5.213

$$$$
lig.pdb
 OpenBabel11021811523D
libRbt.so/2013.1/901 2013/11/27
 46 52  0  0  0  0  0  0  0  0999 V2000
  160.5451   46.4968  148.1089 P   0  0  2  0  0  0  0  0  0  0  0  0
  161.7608   46.7849  148.9625 O   0  0  0  0  0  0  0  0  0  0  0  0
  159.2241   46.3879  148.8260 O   0  0  0  0  0  0  0  0  0  0  0  0
  160.7516   45.1684  147.2270 O   0  0  0  0  0  0  0  0  0  0  0  0
  162.0155   44.5237  147.1372 C   0  0  0  0  0  0  0  0  0  0  0  0
  162.0257   43.5612  145.9611 C   0  0  1  0  0  0  0  0  0  0  0  0
  161.8831   42.2429  146.4708 O   0  0  0  0  0  0  0  0  0  0  0  0
  160.9057   43.7487  144.9456 C   0  0  1  0  0  0  0  0  0  0  0  0
  161.4142   44.3927  143.7866 O   0  0  0  0  0  0  0  0  0  0  0  0
  160.5303   42.3329  144.5697 C   0  0  1  0  0  0  0  0  0  0  0  0
  161.3188   41.9069  143.4567 O   0  0  0  0  0  0  0  0  0  0  0  0
  160.9334   41.4828  145.7394 C   0  0  2  0  0  0  0  0  0  0  0  0
  159.7503   41.2472  146.6006 N   0  0  0  0  0  0  0  0  0  0  0  0
  158.4672   41.3190  146.2057 C   0  0  0  0  0  0  0  0  0  0  0  0
  157.6338   41.0633  147.2427 N   0  0  0  0  0  0  0  0  0  0  0  0
  158.3854   40.8213  148.3314 C   0  0  0  0  0  0  0  0  0  0  0  0
  158.1360   40.4830  149.7524 C   0  0  0  0  0  0  0  0  0  0  0  0
  156.9616   40.3692  150.1788 O   0  0  0  0  0  0  0  0  0  0  0  0
  159.2015   40.3087  150.5528 N   0  0  0  0  0  0  0  0  0  0  0  0
  160.4600   40.4335  150.0906 C   0  0  0  0  0  0  0  0  0  0  0  0
  161.4938   40.2422  150.9403 N   0  0  0  0  0  0  0  0  0  0  0  0
  160.7577   40.7401  148.8076 N   0  0  0  0  0  0  0  0  0  0  0  0
  159.7808   40.9427  147.8978 C   0  0  0  0  0  0  0  0  0  0  0  0
  160.4675   44.9988  142.6152 P   0  0  2  0  0  0  0  0  0  0  0  0
  159.4512   43.9584  142.2113 O   0  0  0  0  0  0  0  0  0  0  0  0
  161.4055   45.6112  141.5920 O   0  0  0  0  0  0  0  0  0  0  0  0
  159.6745   46.1764  143.3858 O   0  0  0  0  0  0  0  0  0  0  0  0
  160.3043   47.4378  143.6066 C   0  0  0  0  0  0  0  0  0  0  0  0
  159.6390   48.2578  144.7163 C   0  0  1  0  0  0  0  0  0  0  0  0
  158.3931   48.7725  144.2414 O   0  0  0  0  0  0  0  0  0  0  0  0
  159.3382   47.4862  145.9993 C   0  0  1  0  0  0  0  0  0  0  0  0
  160.3750   47.6251  146.9699 O   0  0  0  0  0  0  0  0  0  0  0  0
  158.0463   48.1295  146.4674 C   0  0  1  0  0  0  0  0  0  0  0  0
  158.3138   49.2851  147.2667 O   0  0  0  0  0  0  0  0  0  0  0  0
  157.3519   48.6001  145.2065 C   0  0  2  0  0  0  0  0  0  0  0  0
  156.4261   47.5443  144.7266 N   0  0  0  0  0  0  0  0  0  0  0  0
  156.0363   47.3617  143.4494 C   0  0  0  0  0  0  0  0  0  0  0  0
  155.1915   46.3007  143.3234 N   0  0  0  0  0  0  0  0  0  0  0  0
  155.0321   45.7745  144.5482 C   0  0  0  0  0  0  0  0  0  0  0  0
  154.2645   44.6483  145.1382 C   0  0  0  0  0  0  0  0  0  0  0  0
  153.5519   43.8892  144.4467 O   0  0  0  0  0  0  0  0  0  0  0  0
  154.3777   44.4481  146.4522 N   0  0  0  0  0  0  0  0  0  0  0  0
  155.1345   45.2309  147.2367 C   0  0  0  0  0  0  0  0  0  0  0  0
  155.1646   44.9472  148.5474 N   0  0  0  0  0  0  0  0  0  0  0  0
  155.8552   46.2800  146.7760 N   0  0  0  0  0  0  0  0  0  0  0  0
  155.8452   46.5988  145.4647 C   0  0  0  0  0  0  0  0  0  0  0  0
  1  3  2  1  0  0  0
  1 32  1  0  0  0  0
  1  2  1  0  0  0  0
  1  4  1  0  0  0  0
  4  5  1  0  0  0  0
  6  5  1  1  0  0  0
  7  6  1  0  0  0  0
  8  6  1  0  0  0  0
  8 10  1  0  0  0  0
  8  9  1  6  0  0  0
 10 11  1  6  0  0  0
 12 13  1  1  0  0  0
 12  7  1  0  0  0  0
 12 10  1  0  0  0  0
 14 13  1  0  0  0  0
 15 16  1  0  0  0  0
 15 14  2  0  0  0  0
 16 23  2  0  0  0  0
 17 16  1  0  0  0  0
 17 19  1  0  0  0  0
 18 17  2  0  0  0  0
 19 20  2  0  0  0  0
 20 22  1  0  0  0  0
 20 21  1  0  0  0  0
 23 13  1  0  0  0  0
 23 22  1  0  0  0  0
 24 25  2  6  0  0  0
 24  9  1  0  0  0  0
 24 26  1  0  0  0  0
 27 28  1  0  0  0  0
 27 24  1  0  0  0  0
 29 30  1  6  0  0  0
 29 28  1  0  0  0  0
 31 32  1  1  0  0  0
 31 29  1  0  0  0  0
 33 34  1  1  0  0  0
 33 35  1  0  0  0  0
 33 31  1  0  0  0  0
 35 36  1  6  0  0  0
 35 30  1  0  0  0  0
 36 37  1  0  0  0  0
 38 37  2  0  0  0  0
 39 38  1  0  0  0  0
 40 41  2  0  0  0  0
 40 39  1  0  0  0  0
 42 40  1  0  0  0  0
 43 42  2  0  0  0  0
 43 45  1  0  0  0  0
 44 43  1  0  0  0  0
 45 46  1  0  0  0  0
 46 39  2  0  0  0  0
 46 36  1  0  0  0  0
M  END
>  <CHROM.1>
138.30476092,-38.69381840,158.93285854,44.59913499,146.14224717,-1.28052882
0.28134956,-0.68561179

>  <Name>
lig.pdb

>  <RI>
0

>  <Rbt.Current_Directory>
/home/itssahil/PROJECTS/Mol_Feturizer/New_Systems/rnas/4yb0

>  <Rbt.Executable>
rbdock ($Id: //depot/dev/client3/rdock/2013.1/src/exe/rbdock.cxx#4 $)

>  <Rbt.Library>
libRbt.so (2013.1, Build901 2013/11/27)

>  <Rbt.Parameter_File>
/export/apps/rDock/src/rDock_2013.1_src/data/scripts/dock_solv.prm

>  <Rbt.Receptor>
prm/pocket_docking_7.prm

>  <SCORE>
-21.25

>  <SCORE.INTER>
-22.4291

>  <SCORE.INTER.CONST>
1

>  <SCORE.INTER.POLAR>
0

>  <SCORE.INTER.ROT>
2

>  <SCORE.INTER.SOLV>
17.8895

>  <SCORE.INTER.VDW>
-25.8492

>  <SCORE.INTER.norm>
-0.487589

>  <SCORE.INTRA>
1.17914

>  <SCORE.INTRA.DIHEDRAL>
-0.0328001

>  <SCORE.INTRA.DIHEDRAL.0>
4.74153

>  <SCORE.INTRA.POLAR>
0

>  <SCORE.INTRA.POLAR.0>
0

>  <SCORE.INTRA.REPUL>
0.0631094

>  <SCORE.INTRA.REPUL.0>
0

>  <SCORE.INTRA.SOLV>
0.202576

>  <SCORE.INTRA.SOLV.lig_0>
-60.4375

>  <SCORE.INTRA.VDW>
0.7787

>  <SCORE.INTRA.VDW.0>
-1.83689

>  <SCORE.INTRA.norm>
0.0256334

>  <SCORE.RESTR>
0

>  <SCORE.RESTR.CAVITY>
0

>  <SCORE.RESTR.norm>
0

>  <SCORE.SYSTEM>
0

>  <SCORE.SYSTEM.CONST>
0

>  <SCORE.SYSTEM.DIHEDRAL>
0

>  <SCORE.SYSTEM.SOLV>
0

>  <SCORE.SYSTEM.norm>
0

>  <SCORE.heavy>
46

>  <SCORE.norm>
-0.461956

>  <RMSD>
5.225

$$$$
lig.pdb
 OpenBabel11021811523D
libRbt.so/2013.1/901 2013/11/27
 46 52  0  0  0  0  0  0  0  0999 V2000
  160.3214   42.2367  147.8315 P   0  0  2  0  0  0  0  0  0  0  0  0
  161.1130   41.0048  148.2128 O   0  0  0  0  0  0  0  0  0  0  0  0
  159.0495   42.0113  147.0551 O   0  0  0  0  0  0  0  0  0  0  0  0
  161.2290   43.2865  147.0195 O   0  0  0  0  0  0  0  0  0  0  0  0
  162.6363   43.1211  146.9050 C   0  0  0  0  0  0  0  0  0  0  0  0
  163.2770   44.4209  146.4468 C   0  0  1  0  0  0  0  0  0  0  0  0
  163.5929   44.2929  145.0678 O   0  0  0  0  0  0  0  0  0  0  0  0
  162.4063   45.6648  146.5707 C   0  0  1  0  0  0  0  0  0  0  0  0
  162.8232   46.4303  147.6918 O   0  0  0  0  0  0  0  0  0  0  0  0
  162.7321   46.4489  145.3193 C   0  0  1  0  0  0  0  0  0  0  0  0
  163.8304   47.3265  145.5753 O   0  0  0  0  0  0  0  0  0  0  0  0
  163.2084   45.4358  144.3191 C   0  0  2  0  0  0  0  0  0  0  0  0
  162.0827   45.0632  143.4299 N   0  0  0  0  0  0  0  0  0  0  0  0
  161.3413   45.9184  142.7043 C   0  0  0  0  0  0  0  0  0  0  0  0
  160.3846   45.2531  142.0135 N   0  0  0  0  0  0  0  0  0  0  0  0
  160.5036   43.9430  142.2933 C   0  0  0  0  0  0  0  0  0  0  0  0
  159.8103   42.6949  141.8963 C   0  0  0  0  0  0  0  0  0  0  0  0
  158.8399   42.7356  141.1022 O   0  0  0  0  0  0  0  0  0  0  0  0
  160.2546   41.5375  142.4153 N   0  0  0  0  0  0  0  0  0  0  0  0
  161.2956   41.4994  143.2684 C   0  0  0  0  0  0  0  0  0  0  0  0
  161.7025   40.3058  143.7554 N   0  0  0  0  0  0  0  0  0  0  0  0
  161.9716   42.5991  143.6717 N   0  0  0  0  0  0  0  0  0  0  0  0
  161.6280   43.8268  143.2271 C   0  0  0  0  0  0  0  0  0  0  0  0
  161.9648   47.6695  148.2946 P   0  0  2  0  0  0  0  0  0  0  0  0
  161.5715   48.5943  147.1683 O   0  0  0  0  0  0  0  0  0  0  0  0
  162.7494   48.1829  149.4873 O   0  0  0  0  0  0  0  0  0  0  0  0
  160.6204   46.9394  148.8132 O   0  0  0  0  0  0  0  0  0  0  0  0
  160.6154   46.2542  150.0649 C   0  0  0  0  0  0  0  0  0  0  0  0
  159.4646   45.2520  150.1991 C   0  0  1  0  0  0  0  0  0  0  0  0
  158.2393   45.9624  150.3911 O   0  0  0  0  0  0  0  0  0  0  0  0
  159.2603   44.3362  148.9943 C   0  0  1  0  0  0  0  0  0  0  0  0
  159.9312   43.0858  149.1452 O   0  0  0  0  0  0  0  0  0  0  0  0
  157.7533   44.1616  148.9735 C   0  0  1  0  0  0  0  0  0  0  0  0
  157.3548   43.0793  149.8195 O   0  0  0  0  0  0  0  0  0  0  0  0
  157.1930   45.4353  149.5710 C   0  0  2  0  0  0  0  0  0  0  0  0
  156.9016   46.4055  148.4866 N   0  0  0  0  0  0  0  0  0  0  0  0
  156.1067   46.1793  147.4220 C   0  0  0  0  0  0  0  0  0  0  0  0
  156.0268   47.2683  146.6078 N   0  0  0  0  0  0  0  0  0  0  0  0
  156.7832   48.2307  147.1591 C   0  0  0  0  0  0  0  0  0  0  0  0
  157.1551   49.6275  146.8183 C   0  0  0  0  0  0  0  0  0  0  0  0
  156.7190   50.2067  145.8002 O   0  0  0  0  0  0  0  0  0  0  0  0
  157.9658   50.2713  147.6596 N   0  0  0  0  0  0  0  0  0  0  0  0
  158.4556   49.6959  148.7686 C   0  0  0  0  0  0  0  0  0  0  0  0
  159.2738   50.4312  149.5362 N   0  0  0  0  0  0  0  0  0  0  0  0
  158.1708   48.4264  149.1422 N   0  0  0  0  0  0  0  0  0  0  0  0
  157.3560   47.6549  148.3924 C   0  0  0  0  0  0  0  0  0  0  0  0
  1  3  2  6  0  0  0
  1 32  1  0  0  0  0
  1  2  1  0  0  0  0
  1  4  1  0  0  0  0
  4  5  1  0  0  0  0
  6  5  1  6  0  0  0
  7  6  1  0  0  0  0
  8  6  1  0  0  0  0
  8 10  1  0  0  0  0
  8  9  1  1  0  0  0
 10 11  1  1  0  0  0
 12 13  1  6  0  0  0
 12  7  1  0  0  0  0
 12 10  1  0  0  0  0
 14 13  1  0  0  0  0
 15 16  1  0  0  0  0
 15 14  2  0  0  0  0
 16 23  2  0  0  0  0
 17 16  1  0  0  0  0
 17 19  1  0  0  0  0
 18 17  2  0  0  0  0
 19 20  2  0  0  0  0
 20 22  1  0  0  0  0
 20 21  1  0  0  0  0
 23 13  1  0  0  0  0
 23 22  1  0  0  0  0
 24 25  2  6  0  0  0
 24  9  1  0  0  0  0
 24 26  1  0  0  0  0
 27 28  1  0  0  0  0
 27 24  1  0  0  0  0
 29 30  1  6  0  0  0
 29 28  1  0  0  0  0
 31 32  1  1  0  0  0
 31 29  1  0  0  0  0
 33 34  1  1  0  0  0
 33 35  1  0  0  0  0
 33 31  1  0  0  0  0
 35 36  1  6  0  0  0
 35 30  1  0  0  0  0
 36 37  1  0  0  0  0
 38 37  2  0  0  0  0
 39 38  1  0  0  0  0
 40 41  2  0  0  0  0
 40 39  1  0  0  0  0
 42 40  1  0  0  0  0
 43 42  2  0  0  0  0
 43 45  1  0  0  0  0
 44 43  1  0  0  0  0
 45 46  1  0  0  0  0
 46 39  2  0  0  0  0
 46 36  1  0  0  0  0
M  END
>  <CHROM.1>
170.72091394,170.57719077,160.17163514,45.40122871,146.74654259,0.75769938
-1.02543576,-3.12648548

>  <Name>
lig.pdb

>  <RI>
0

>  <Rbt.Current_Directory>
/home/itssahil/PROJECTS/Mol_Feturizer/New_Systems/rnas/4yb0

>  <Rbt.Executable>
rbdock ($Id: //depot/dev/client3/rdock/2013.1/src/exe/rbdock.cxx#4 $)

>  <Rbt.Library>
libRbt.so (2013.1, Build901 2013/11/27)

>  <Rbt.Parameter_File>
/export/apps/rDock/src/rDock_2013.1_src/data/scripts/dock_solv.prm

>  <Rbt.Receptor>
prm/pocket_docking_6.prm

>  <SCORE>
-16.2273

>  <SCORE.INTER>
-15.5251

>  <SCORE.INTER.CONST>
1

>  <SCORE.INTER.POLAR>
0

>  <SCORE.INTER.ROT>
2

>  <SCORE.INTER.SOLV>
15.656

>  <SCORE.INTER.VDW>
-20.5021

>  <SCORE.INTER.norm>
-0.337502

>  <SCORE.INTRA>
-0.70216

>  <SCORE.INTRA.DIHEDRAL>
0.067697

>  <SCORE.INTRA.DIHEDRAL.0>
4.74153

>  <SCORE.INTRA.POLAR>
0

>  <SCORE.INTRA.POLAR.0>
0

>  <SCORE.INTRA.REPUL>
0

>  <SCORE.INTRA.REPUL.0>
0

>  <SCORE.INTRA.SOLV>
2.17048

>  <SCORE.INTRA.SOLV.lig_0>
-60.4375

>  <SCORE.INTRA.VDW>
-1.82125

>  <SCORE.INTRA.VDW.0>
-1.83689

>  <SCORE.INTRA.norm>
-0.0152643

>  <SCORE.RESTR>
0

>  <SCORE.RESTR.CAVITY>
0

>  <SCORE.RESTR.norm>
0

>  <SCORE.SYSTEM>
0

>  <SCORE.SYSTEM.CONST>
0

>  <SCORE.SYSTEM.DIHEDRAL>
0

>  <SCORE.SYSTEM.SOLV>
0

>  <SCORE.SYSTEM.norm>
0

>  <SCORE.heavy>
46

>  <SCORE.norm>
-0.352767

>  <RMSD>
5.313

$$$$
lig.pdb
 OpenBabel11021811523D
libRbt.so/2013.1/901 2013/11/27
 46 52  0  0  0  0  0  0  0  0999 V2000
  160.1770   43.1273  142.4170 P   0  0  2  0  0  0  0  0  0  0  0  0
  160.4984   43.1949  140.9399 O   0  0  0  0  0  0  0  0  0  0  0  0
  159.1737   42.0875  142.8452 O   0  0  0  0  0  0  0  0  0  0  0  0
  159.6936   44.5553  142.9758 O   0  0  0  0  0  0  0  0  0  0  0  0
  159.7933   45.7351  142.1888 C   0  0  0  0  0  0  0  0  0  0  0  0
  159.6472   46.9632  143.0721 C   0  0  1  0  0  0  0  0  0  0  0  0
  158.3371   47.4816  142.8907 O   0  0  0  0  0  0  0  0  0  0  0  0
  159.8066   46.7225  144.5679 C   0  0  1  0  0  0  0  0  0  0  0  0
  161.0828   47.1787  144.9920 O   0  0  0  0  0  0  0  0  0  0  0  0
  158.7580   47.6217  145.1832 C   0  0  1  0  0  0  0  0  0  0  0  0
  159.3219   48.9090  145.4420 O   0  0  0  0  0  0  0  0  0  0  0  0
  157.7127   47.8097  144.1224 C   0  0  2  0  0  0  0  0  0  0  0  0
  156.6020   46.8573  144.3593 N   0  0  0  0  0  0  0  0  0  0  0  0
  155.8618   46.2643  143.4064 C   0  0  0  0  0  0  0  0  0  0  0  0
  154.9204   45.4643  143.9622 N   0  0  0  0  0  0  0  0  0  0  0  0
  155.0483   45.5371  145.2990 C   0  0  0  0  0  0  0  0  0  0  0  0
  154.3720   44.9397  146.4745 C   0  0  0  0  0  0  0  0  0  0  0  0
  153.4114   44.1482  146.3170 O   0  0  0  0  0  0  0  0  0  0  0  0
  154.8206   45.2772  147.6957 N   0  0  0  0  0  0  0  0  0  0  0  0
  155.8509   46.1284  147.8594 C   0  0  0  0  0  0  0  0  0  0  0  0
  156.2628   46.4280  149.1115 N   0  0  0  0  0  0  0  0  0  0  0  0
  156.5112   46.7084  146.8316 N   0  0  0  0  0  0  0  0  0  0  0  0
  156.1617   46.4569  145.5519 C   0  0  0  0  0  0  0  0  0  0  0  0
  161.7104   46.8428  146.4512 P   0  0  2  0  0  0  0  0  0  0  0  0
  160.6841   47.1495  147.5147 O   0  0  0  0  0  0  0  0  0  0  0  0
  163.0806   47.4937  146.4789 O   0  0  0  0  0  0  0  0  0  0  0  0
  161.8821   45.2376  146.3929 O   0  0  0  0  0  0  0  0  0  0  0  0
  162.9994   44.6614  145.7177 C   0  0  0  0  0  0  0  0  0  0  0  0
  162.7886   43.1891  145.3509 C   0  0  1  0  0  0  0  0  0  0  0  0
  162.8758   42.3904  146.5329 O   0  0  0  0  0  0  0  0  0  0  0  0
  161.4442   42.8706  144.7004 C   0  0  1  0  0  0  0  0  0  0  0  0
  161.5181   42.8746  143.2754 O   0  0  0  0  0  0  0  0  0  0  0  0
  161.1454   41.4841  145.2394 C   0  0  1  0  0  0  0  0  0  0  0  0
  161.7424   40.4785  144.4159 O   0  0  0  0  0  0  0  0  0  0  0  0
  161.8230   41.4244  146.5925 C   0  0  2  0  0  0  0  0  0  0  0  0
  160.8613   41.8309  147.6471 N   0  0  0  0  0  0  0  0  0  0  0  0
  160.9606   41.5345  148.9581 C   0  0  0  0  0  0  0  0  0  0  0  0
  159.9296   42.0598  149.6766 N   0  0  0  0  0  0  0  0  0  0  0  0
  159.1422   42.7208  148.8133 C   0  0  0  0  0  0  0  0  0  0  0  0
  157.8782   43.4963  148.8947 C   0  0  0  0  0  0  0  0  0  0  0  0
  157.2807   43.6907  149.9751 O   0  0  0  0  0  0  0  0  0  0  0  0
  157.3992   44.0129  147.7618 N   0  0  0  0  0  0  0  0  0  0  0  0
  158.0065   43.8379  146.5780 C   0  0  0  0  0  0  0  0  0  0  0  0
  157.4295   44.3900  145.5003 N   0  0  0  0  0  0  0  0  0  0  0  0
  159.1544   43.1378  146.4212 N   0  0  0  0  0  0  0  0  0  0  0  0
  159.7605   42.5638  147.4815 C   0  0  0  0  0  0  0  0  0  0  0  0
  1  3  2  1  0  0  0
  1 32  1  0  0  0  0
  1  2  1  0  0  0  0
  1  4  1  0  0  0  0
  4  5  1  0  0  0  0
  6  5  1  6  0  0  0
  7  6  1  0  0  0  0
  8  6  1  0  0  0  0
  8 10  1  0  0  0  0
  8  9  1  1  0  0  0
 10 11  1  6  0  0  0
 12 13  1  1  0  0  0
 12  7  1  0  0  0  0
 12 10  1  0  0  0  0
 14 13  1  0  0  0  0
 15 16  1  0  0  0  0
 15 14  2  0  0  0  0
 16 23  2  0  0  0  0
 17 16  1  0  0  0  0
 17 19  1  0  0  0  0
 18 17  2  0  0  0  0
 19 20  2  0  0  0  0
 20 22  1  0  0  0  0
 20 21  1  0  0  0  0
 23 13  1  0  0  0  0
 23 22  1  0  0  0  0
 24 25  2  1  0  0  0
 24  9  1  0  0  0  0
 24 26  1  0  0  0  0
 27 28  1  0  0  0  0
 27 24  1  0  0  0  0
 29 30  1  1  0  0  0
 29 28  1  0  0  0  0
 31 32  1  6  0  0  0
 31 29  1  0  0  0  0
 33 34  1  6  0  0  0
 33 35  1  0  0  0  0
 33 31  1  0  0  0  0
 35 36  1  1  0  0  0
 35 30  1  0  0  0  0
 36 37  1  0  0  0  0
 38 37  2  0  0  0  0
 39 38  1  0  0  0  0
 40 41  2  0  0  0  0
 40 39  1  0  0  0  0
 42 40  1  0  0  0  0
 43 42  2  0  0  0  0
 43 45  1  0  0  0  0
 44 43  1  0  0  0  0
 45 46  1  0  0  0  0
 46 39  2  0  0  0  0
 46 36  1  0  0  0  0
M  END
>  <CHROM.1>
-30.83391748,-86.06297946,159.19886944,44.69927368,145.64116519,-0.11301238
0.47614789,-0.98550413

>  <Name>
lig.pdb

>  <RI>
0

>  <Rbt.Current_Directory>
/home/itssahil/PROJECTS/Mol_Feturizer/New_Systems/rnas/4yb0

>  <Rbt.Executable>
rbdock ($Id: //depot/dev/client3/rdock/2013.1/src/exe/rbdock.cxx#4 $)

>  <Rbt.Library>
libRbt.so (2013.1, Build901 2013/11/27)

>  <Rbt.Parameter_File>
/export/apps/rDock/src/rDock_2013.1_src/data/scripts/dock_solv.prm

>  <Rbt.Receptor>
prm/pocket_docking_3.prm

>  <SCORE>
-10.6091

>  <SCORE.INTER>
-19.0466

>  <SCORE.INTER.CONST>
1

>  <SCORE.INTER.POLAR>
0

>  <SCORE.INTER.ROT>
2

>  <SCORE.INTER.SOLV>
19.2825

>  <SCORE.INTER.VDW>
-24.0585

>  <SCORE.INTER.norm>
-0.414056

>  <SCORE.INTRA>
6.56167

>  <SCORE.INTRA.DIHEDRAL>
0.163386

>  <SCORE.INTRA.DIHEDRAL.0>
4.74153

>  <SCORE.INTRA.POLAR>
0

>  <SCORE.INTRA.POLAR.0>
0

>  <SCORE.INTRA.REPUL>
0.665672

>  <SCORE.INTRA.REPUL.0>
0

>  <SCORE.INTRA.SOLV>
7.67764

>  <SCORE.INTRA.SOLV.lig_0>
-60.4375

>  <SCORE.INTRA.VDW>
-0.687206

>  <SCORE.INTRA.VDW.0>
-1.83689

>  <SCORE.INTRA.norm>
0.142645

>  <SCORE.RESTR>
1.87583

>  <SCORE.RESTR.CAVITY>
1.87583

>  <SCORE.RESTR.norm>
0.0407789

>  <SCORE.SYSTEM>
0

>  <SCORE.SYSTEM.CONST>
0

>  <SCORE.SYSTEM.DIHEDRAL>
0

>  <SCORE.SYSTEM.SOLV>
0

>  <SCORE.SYSTEM.norm>
0

>  <SCORE.heavy>
46

>  <SCORE.norm>
-0.230632

>  <RMSD>
5.316

$$$$
lig.pdb
 OpenBabel11021811523D
libRbt.so/2013.1/901 2013/11/27
 46 52  0  0  0  0  0  0  0  0999 V2000
  160.3725   46.2088  142.2756 P   0  0  2  0  0  0  0  0  0  0  0  0
  160.6593   47.2005  141.1693 O   0  0  0  0  0  0  0  0  0  0  0  0
  159.4716   45.0510  141.9307 O   0  0  0  0  0  0  0  0  0  0  0  0
  159.7773   46.9411  143.5773 O   0  0  0  0  0  0  0  0  0  0  0  0
  159.7594   48.3581  143.6912 C   0  0  0  0  0  0  0  0  0  0  0  0
  159.5235   48.7604  145.1377 C   0  0  1  0  0  0  0  0  0  0  0  0
  158.1702   49.1734  145.2639 O   0  0  0  0  0  0  0  0  0  0  0  0
  159.7311   47.6600  146.1705 C   0  0  1  0  0  0  0  0  0  0  0  0
  160.9704   47.8563  146.8355 O   0  0  0  0  0  0  0  0  0  0  0  0
  158.6199   47.8990  147.1681 C   0  0  1  0  0  0  0  0  0  0  0  0
  159.0744   48.7904  148.1882 O   0  0  0  0  0  0  0  0  0  0  0  0
  157.5426   48.6185  146.4097 C   0  0  2  0  0  0  0  0  0  0  0  0
  156.5235   47.6388  145.9642 N   0  0  0  0  0  0  0  0  0  0  0  0
  155.9634   47.5915  144.7430 C   0  0  0  0  0  0  0  0  0  0  0  0
  155.0593   46.5852  144.6712 N   0  0  0  0  0  0  0  0  0  0  0  0
  155.0290   45.9665  145.8650 C   0  0  0  0  0  0  0  0  0  0  0  0
  154.2957   44.8259  146.4626 C   0  0  0  0  0  0  0  0  0  0  0  0
  153.4511   44.1921  145.7852 O   0  0  0  0  0  0  0  0  0  0  0  0
  154.5660   44.5054  147.7396 N   0  0  0  0  0  0  0  0  0  0  0  0
  155.4723   45.1898  148.4629 C   0  0  0  0  0  0  0  0  0  0  0  0
  155.7071   44.8197  149.7417 N   0  0  0  0  0  0  0  0  0  0  0  0
  156.1753   46.2392  147.9798 N   0  0  0  0  0  0  0  0  0  0  0  0
  155.9999   46.6671  146.7113 C   0  0  0  0  0  0  0  0  0  0  0  0
  161.6518   46.7414  147.7992 P   0  0  2  0  0  0  0  0  0  0  0  0
  160.6228   46.2417  148.7838 O   0  0  0  0  0  0  0  0  0  0  0  0
  162.9605   47.3426  148.2765 O   0  0  0  0  0  0  0  0  0  0  0  0
  161.9613   45.5362  146.7691 O   0  0  0  0  0  0  0  0  0  0  0  0
  163.1118   45.5924  145.9267 C   0  0  0  0  0  0  0  0  0  0  0  0
  163.0229   44.6513  144.7212 C   0  0  1  0  0  0  0  0  0  0  0  0
  163.2012   43.3028  145.1602 O   0  0  0  0  0  0  0  0  0  0  0  0
  161.6994   44.6971  143.9608 C   0  0  1  0  0  0  0  0  0  0  0  0
  161.7462   45.5874  142.8465 O   0  0  0  0  0  0  0  0  0  0  0  0
  161.5324   43.2560  143.5166 C   0  0  1  0  0  0  0  0  0  0  0  0
  162.1992   43.0266  142.2721 O   0  0  0  0  0  0  0  0  0  0  0  0
  162.2376   42.4267  144.5694 C   0  0  2  0  0  0  0  0  0  0  0  0
  161.2640   42.0157  145.6112 N   0  0  0  0  0  0  0  0  0  0  0  0
  160.0152   41.5620  145.3850 C   0  0  0  0  0  0  0  0  0  0  0  0
  159.3697   41.2534  146.5440 N   0  0  0  0  0  0  0  0  0  0  0  0
  160.2216   41.5057  147.5504 C   0  0  0  0  0  0  0  0  0  0  0  0
  160.1850   41.4156  149.0324 C   0  0  0  0  0  0  0  0  0  0  0  0
  159.1838   40.9979  149.6529 O   0  0  0  0  0  0  0  0  0  0  0  0
  161.2831   41.7772  149.6982 N   0  0  0  0  0  0  0  0  0  0  0  0
  162.3852   42.2261  149.0781 C   0  0  0  0  0  0  0  0  0  0  0  0
  163.4274   42.5757  149.8469 N   0  0  0  0  0  0  0  0  0  0  0  0
  162.4927   42.3451  147.7340 N   0  0  0  0  0  0  0  0  0  0  0  0
  161.4633   42.0082  146.9290 C   0  0  0  0  0  0  0  0  0  0  0  0
  1  3  2  6  0  0  0
  1 32  1  0  0  0  0
  1  2  1  0  0  0  0
  1  4  1  0  0  0  0
  4  5  1  0  0  0  0
  6  5  1  6  0  0  0
  7  6  1  0  0  0  0
  8  6  1  0  0  0  0
  8 10  1  0  0  0  0
  8  9  1  1  0  0  0
 10 11  1  1  0  0  0
 12 13  1  6  0  0  0
 12  7  1  0  0  0  0
 12 10  1  0  0  0  0
 14 13  1  0  0  0  0
 15 16  1  0  0  0  0
 15 14  2  0  0  0  0
 16 23  2  0  0  0  0
 17 16  1  0  0  0  0
 17 19  1  0  0  0  0
 18 17  2  0  0  0  0
 19 20  2  0  0  0  0
 20 22  1  0  0  0  0
 20 21  1  0  0  0  0
 23 13  1  0  0  0  0
 23 22  1  0  0  0  0
 24 25  2  1  0  0  0
 24  9  1  0  0  0  0
 24 26  1  0  0  0  0
 27 28  1  0  0  0  0
 27 24  1  0  0  0  0
 29 30  1  1  0  0  0
 29 28  1  0  0  0  0
 31 32  1  6  0  0  0
 31 29  1  0  0  0  0
 33 34  1  6  0  0  0
 33 35  1  0  0  0  0
 33 31  1  0  0  0  0
 35 36  1  1  0  0  0
 35 30  1  0  0  0  0
 36 37  1  0  0  0  0
 38 37  2  0  0  0  0
 39 38  1  0  0  0  0
 40 41  2  0  0  0  0
 40 39  1  0  0  0  0
 42 40  1  0  0  0  0
 43 42  2  0  0  0  0
 43 45  1  0  0  0  0
 44 43  1  0  0  0  0
 45 46  1  0  0  0  0
 46 39  2  0  0  0  0
 46 36  1  0  0  0  0
M  END
>  <CHROM.1>
-20.40376047,157.82822348,159.67549384,45.22548711,146.06307991,-2.70379957
-0.40485628,2.30057358

>  <Name>
lig.pdb

>  <RI>
0

>  <Rbt.Current_Directory>
/home/itssahil/PROJECTS/Mol_Feturizer/New_Systems/rnas/4yb0

>  <Rbt.Executable>
rbdock ($Id: //depot/dev/client3/rdock/2013.1/src/exe/rbdock.cxx#4 $)

>  <Rbt.Library>
libRbt.so (2013.1, Build901 2013/11/27)

>  <Rbt.Parameter_File>
/export/apps/rDock/src/rDock_2013.1_src/data/scripts/dock_solv.prm

>  <Rbt.Receptor>
prm/pocket_docking_8.prm

>  <SCORE>
-23.9273

>  <SCORE.INTER>
-23.9759

>  <SCORE.INTER.CONST>
1

>  <SCORE.INTER.POLAR>
0

>  <SCORE.INTER.ROT>
2

>  <SCORE.INTER.SOLV>
18.5674

>  <SCORE.INTER.VDW>
-27.1064

>  <SCORE.INTER.norm>
-0.521216

>  <SCORE.INTRA>
0.0486128

>  <SCORE.INTRA.DIHEDRAL>
0.153897

>  <SCORE.INTRA.DIHEDRAL.0>
4.74153

>  <SCORE.INTRA.POLAR>
0

>  <SCORE.INTRA.POLAR.0>
0

>  <SCORE.INTRA.REPUL>
0.00284609

>  <SCORE.INTRA.REPUL.0>
0

>  <SCORE.INTRA.SOLV>
0.265003

>  <SCORE.INTRA.SOLV.lig_0>
-60.4375

>  <SCORE.INTRA.VDW>
-0.175067

>  <SCORE.INTRA.VDW.0>
-1.83689

>  <SCORE.INTRA.norm>
0.0010568

>  <SCORE.RESTR>
0

>  <SCORE.RESTR.CAVITY>
0

>  <SCORE.RESTR.norm>
0

>  <SCORE.SYSTEM>
0

>  <SCORE.SYSTEM.CONST>
0

>  <SCORE.SYSTEM.DIHEDRAL>
0

>  <SCORE.SYSTEM.SOLV>
0

>  <SCORE.SYSTEM.norm>
0

>  <SCORE.heavy>
46

>  <SCORE.norm>
-0.520159

>  <RMSD>
5.345

$$$$
lig.pdb
 OpenBabel11021811523D
libRbt.so/2013.1/901 2013/11/27
 46 52  0  0  0  0  0  0  0  0999 V2000
  161.4799   47.0751  147.8370 P   0  0  2  0  0  0  0  0  0  0  0  0
  162.7970   47.4655  148.4714 O   0  0  0  0  0  0  0  0  0  0  0  0
  160.3848   46.6268  148.7703 O   0  0  0  0  0  0  0  0  0  0  0  0
  161.6845   45.9399  146.7169 O   0  0  0  0  0  0  0  0  0  0  0  0
  162.9796   45.5592  146.2710 C   0  0  0  0  0  0  0  0  0  0  0  0
  162.8737   44.7835  144.9683 C   0  0  1  0  0  0  0  0  0  0  0  0
  163.0512   43.4050  145.2620 O   0  0  0  0  0  0  0  0  0  0  0  0
  161.5401   44.8956  144.2405 C   0  0  1  0  0  0  0  0  0  0  0  0
  161.6728   45.7737  143.1323 O   0  0  0  0  0  0  0  0  0  0  0  0
  161.3107   43.4989  143.7082 C   0  0  1  0  0  0  0  0  0  0  0  0
  161.8864   43.3813  142.4056 O   0  0  0  0  0  0  0  0  0  0  0  0
  162.0896   42.5880  144.6121 C   0  0  2  0  0  0  0  0  0  0  0  0
  161.1788   42.0225  145.6355 N   0  0  0  0  0  0  0  0  0  0  0  0
  159.9605   41.5050  145.3999 C   0  0  0  0  0  0  0  0  0  0  0  0
  159.3866   41.0903  146.5548 N   0  0  0  0  0  0  0  0  0  0  0  0
  160.2442   41.3418  147.5599 C   0  0  0  0  0  0  0  0  0  0  0  0
  160.2600   41.1483  149.0290 C   0  0  0  0  0  0  0  0  0  0  0  0
  159.2754   40.6310  149.6095 O   0  0  0  0  0  0  0  0  0  0  0  0
  161.3529   41.5456  149.7030 N   0  0  0  0  0  0  0  0  0  0  0  0
  162.4064   42.1017  149.0754 C   0  0  0  0  0  0  0  0  0  0  0  0
  163.4811   42.4781  149.8038 N   0  0  0  0  0  0  0  0  0  0  0  0
  162.4571   42.3071  147.7397 N   0  0  0  0  0  0  0  0  0  0  0  0
  161.4249   41.9551  146.9437 C   0  0  0  0  0  0  0  0  0  0  0  0
  160.4073   46.3465  142.2918 P   0  0  2  0  0  0  0  0  0  0  0  0
  159.4975   45.2000  141.9230 O   0  0  0  0  0  0  0  0  0  0  0  0
  160.9887   47.2551  141.2248 O   0  0  0  0  0  0  0  0  0  0  0  0
  159.6363   47.2411  143.3938 O   0  0  0  0  0  0  0  0  0  0  0  0
  160.0995   48.5557  143.6998 C   0  0  0  0  0  0  0  0  0  0  0  0
  159.5816   49.0801  145.0427 C   0  0  1  0  0  0  0  0  0  0  0  0
  158.1976   49.4141  144.9177 O   0  0  0  0  0  0  0  0  0  0  0  0
  159.6962   48.0996  146.2078 C   0  0  1  0  0  0  0  0  0  0  0  0
  160.8898   48.2958  146.9648 O   0  0  0  0  0  0  0  0  0  0  0  0
  158.4587   48.4226  147.0242 C   0  0  1  0  0  0  0  0  0  0  0  0
  158.7184   49.4887  147.9417 O   0  0  0  0  0  0  0  0  0  0  0  0
  157.4369   48.9225  146.0244 C   0  0  2  0  0  0  0  0  0  0  0  0
  156.5995   47.7881  145.5618 N   0  0  0  0  0  0  0  0  0  0  0  0
  156.1972   47.5739  144.2934 C   0  0  0  0  0  0  0  0  0  0  0  0
  155.4495   46.4408  144.1827 N   0  0  0  0  0  0  0  0  0  0  0  0
  155.3681   45.8993  145.4084 C   0  0  0  0  0  0  0  0  0  0  0  0
  154.7204   44.7065  146.0113 C   0  0  0  0  0  0  0  0  0  0  0  0
  154.0632   43.8875  145.3335 O   0  0  0  0  0  0  0  0  0  0  0  0
  154.8829   44.5142  147.3214 N   0  0  0  0  0  0  0  0  0  0  0  0
  155.5842   45.3607  148.0912 C   0  0  0  0  0  0  0  0  0  0  0  0
  155.6716   45.0777  149.3994 N   0  0  0  0  0  0  0  0  0  0  0  0
  156.1954   46.4721  147.6183 N   0  0  0  0  0  0  0  0  0  0  0  0
  156.1248   46.7918  146.3091 C   0  0  0  0  0  0  0  0  0  0  0  0
  1  3  2  1  0  0  0
  1 32  1  0  0  0  0
  1  2  1  0  0  0  0
  1  4  1  0  0  0  0
  4  5  1  0  0  0  0
  6  5  1  1  0  0  0
  7  6  1  0  0  0  0
  8  6  1  0  0  0  0
  8 10  1  0  0  0  0
  8  9  1  6  0  0  0
 10 11  1  6  0  0  0
 12 13  1  1  0  0  0
 12  7  1  0  0  0  0
 12 10  1  0  0  0  0
 14 13  1  0  0  0  0
 15 16  1  0  0  0  0
 15 14  2  0  0  0  0
 16 23  2  0  0  0  0
 17 16  1  0  0  0  0
 17 19  1  0  0  0  0
 18 17  2  0  0  0  0
 19 20  2  0  0  0  0
 20 22  1  0  0  0  0
 20 21  1  0  0  0  0
 23 13  1  0  0  0  0
 23 22  1  0  0  0  0
 24 25  2  6  0  0  0
 24  9  1  0  0  0  0
 24 26  1  0  0  0  0
 27 28  1  0  0  0  0
 27 24  1  0  0  0  0
 29 30  1  6  0  0  0
 29 28  1  0  0  0  0
 31 32  1  1  0  0  0
 31 29  1  0  0  0  0
 33 34  1  1  0  0  0
 33 35  1  0  0  0  0
 33 31  1  0  0  0  0
 35 36  1  6  0  0  0
 35 30  1  0  0  0  0
 36 37  1  0  0  0  0
 38 37  2  0  0  0  0
 39 38  1  0  0  0  0
 40 41  2  0  0  0  0
 40 39  1  0  0  0  0
 42 40  1  0  0  0  0
 43 42  2  0  0  0  0
 43 45  1  0  0  0  0
 44 43  1  0  0  0  0
 45 46  1  0  0  0  0
 46 39  2  0  0  0  0
 46 36  1  0  0  0  0
M  END
>  <CHROM.1>
161.30861720,-24.00841180,159.67801458,45.34917970,145.98662481,-0.84819261
0.37369859,-0.72233057

>  <Name>
lig.pdb

>  <RI>
0

>  <Rbt.Current_Directory>
/home/itssahil/PROJECTS/Mol_Feturizer/New_Systems/rnas/4yb0

>  <Rbt.Executable>
rbdock ($Id: //depot/dev/client3/rdock/2013.1/src/exe/rbdock.cxx#4 $)

>  <Rbt.Library>
libRbt.so (2013.1, Build901 2013/11/27)

>  <Rbt.Parameter_File>
/export/apps/rDock/src/rDock_2013.1_src/data/scripts/dock_solv.prm

>  <Rbt.Receptor>
prm/pocket_docking_6.prm

>  <SCORE>
-21.6588

>  <SCORE.INTER>
-21.907

>  <SCORE.INTER.CONST>
1

>  <SCORE.INTER.POLAR>
0

>  <SCORE.INTER.ROT>
2

>  <SCORE.INTER.SOLV>
17.1717

>  <SCORE.INTER.VDW>
-25.2619

>  <SCORE.INTER.norm>
-0.476238

>  <SCORE.INTRA>
0.248188

>  <SCORE.INTRA.DIHEDRAL>
-0.0366571

>  <SCORE.INTRA.DIHEDRAL.0>
4.74153

>  <SCORE.INTRA.POLAR>
0

>  <SCORE.INTRA.POLAR.0>
0

>  <SCORE.INTRA.REPUL>
0.0255843

>  <SCORE.INTRA.REPUL.0>
0

>  <SCORE.INTRA.SOLV>
0.277306

>  <SCORE.INTRA.SOLV.lig_0>
-60.4375

>  <SCORE.INTRA.VDW>
-5.77369e-05

>  <SCORE.INTRA.VDW.0>
-1.83689

>  <SCORE.INTRA.norm>
0.00539539

>  <SCORE.RESTR>
0

>  <SCORE.RESTR.CAVITY>
0

>  <SCORE.RESTR.norm>
0

>  <SCORE.SYSTEM>
0

>  <SCORE.SYSTEM.CONST>
0

>  <SCORE.SYSTEM.DIHEDRAL>
0

>  <SCORE.SYSTEM.SOLV>
0

>  <SCORE.SYSTEM.norm>
0

>  <SCORE.heavy>
46

>  <SCORE.norm>
-0.470843

>  <RMSD>
5.384

$$$$
lig.pdb
 OpenBabel11021811523D
libRbt.so/2013.1/901 2013/11/27
 46 52  0  0  0  0  0  0  0  0999 V2000
  159.5269   47.2930  149.6965 P   0  0  2  0  0  0  0  0  0  0  0  0
  159.0613   47.7255  151.0697 O   0  0  0  0  0  0  0  0  0  0  0  0
  159.6282   48.3683  148.6455 O   0  0  0  0  0  0  0  0  0  0  0  0
  158.6119   46.1049  149.1164 O   0  0  0  0  0  0  0  0  0  0  0  0
  157.6516   45.4412  149.9278 C   0  0  0  0  0  0  0  0  0  0  0  0
  157.2263   44.1388  149.2700 C   0  0  1  0  0  0  0  0  0  0  0  0
  155.9463   44.3384  148.6871 O   0  0  0  0  0  0  0  0  0  0  0  0
  158.1308   43.6393  148.1506 C   0  0  1  0  0  0  0  0  0  0  0  0
  158.9288   42.5645  148.6246 O   0  0  0  0  0  0  0  0  0  0  0  0
  157.1588   43.0885  147.1314 C   0  0  1  0  0  0  0  0  0  0  0  0
  156.9133   41.7067  147.4003 O   0  0  0  0  0  0  0  0  0  0  0  0
  155.8669   43.8147  147.3702 C   0  0  2  0  0  0  0  0  0  0  0  0
  155.7598   44.9442  146.4166 N   0  0  0  0  0  0  0  0  0  0  0  0
  156.5442   46.0360  146.4041 C   0  0  0  0  0  0  0  0  0  0  0  0
  156.1696   46.8815  145.4142 N   0  0  0  0  0  0  0  0  0  0  0  0
  155.1238   46.3325  144.7709 C   0  0  0  0  0  0  0  0  0  0  0  0
  154.2535   46.7018  143.6298 C   0  0  0  0  0  0  0  0  0  0  0  0
  154.4308   47.7861  143.0241 O   0  0  0  0  0  0  0  0  0  0  0  0
  153.2810   45.8432  143.2782 N   0  0  0  0  0  0  0  0  0  0  0  0
  153.0939   44.6815  143.9326 C   0  0  0  0  0  0  0  0  0  0  0  0
  152.1029   43.8541  143.5318 N   0  0  0  0  0  0  0  0  0  0  0  0
  153.8507   44.2841  144.9805 N   0  0  0  0  0  0  0  0  0  0  0  0
  154.8616   45.0534  145.4378 C   0  0  0  0  0  0  0  0  0  0  0  0
  160.1941   41.9635  147.8037 P   0  0  2  0  0  0  0  0  0  0  0  0
  159.7773   41.6940  146.3783 O   0  0  0  0  0  0  0  0  0  0  0  0
  160.7702   40.8591  148.6699 O   0  0  0  0  0  0  0  0  0  0  0  0
  161.2170   43.2135  147.7808 O   0  0  0  0  0  0  0  0  0  0  0  0
  162.0228   43.5000  148.9232 C   0  0  0  0  0  0  0  0  0  0  0  0
  162.5707   44.9305  148.9312 C   0  0  1  0  0  0  0  0  0  0  0  0
  163.6116   45.0433  147.9583 O   0  0  0  0  0  0  0  0  0  0  0  0
  161.5468   46.0173  148.6110 C   0  0  1  0  0  0  0  0  0  0  0  0
  160.9708   46.5817  149.7882 O   0  0  0  0  0  0  0  0  0  0  0  0
  162.3816   47.0346  147.8557 C   0  0  1  0  0  0  0  0  0  0  0  0
  163.0138   47.9455  148.7592 O   0  0  0  0  0  0  0  0  0  0  0  0
  163.4745   46.2343  147.1786 C   0  0  2  0  0  0  0  0  0  0  0  0
  163.0404   45.8612  145.8095 N   0  0  0  0  0  0  0  0  0  0  0  0
  163.1344   44.6332  145.2621 C   0  0  0  0  0  0  0  0  0  0  0  0
  162.6393   44.6037  143.9936 N   0  0  0  0  0  0  0  0  0  0  0  0
  162.2054   45.8419  143.7095 C   0  0  0  0  0  0  0  0  0  0  0  0
  161.5821   46.5168  142.5425 C   0  0  0  0  0  0  0  0  0  0  0  0
  161.3094   45.9090  141.4851 O   0  0  0  0  0  0  0  0  0  0  0  0
  161.2916   47.8131  142.6642 N   0  0  0  0  0  0  0  0  0  0  0  0
  161.5587   48.5086  143.7803 C   0  0  0  0  0  0  0  0  0  0  0  0
  161.2371   49.8108  143.7885 N   0  0  0  0  0  0  0  0  0  0  0  0
  162.1323   47.9678  144.8807 N   0  0  0  0  0  0  0  0  0  0  0  0
  162.4744   46.6626  144.9073 C   0  0  0  0  0  0  0  0  0  0  0  0
  1  3  2  6  0  0  0
  1 32  1  0  0  0  0
  1  2  1  0  0  0  0
  1  4  1  0  0  0  0
  4  5  1  0  0  0  0
  6  5  1  6  0  0  0
  7  6  1  0  0  0  0
  8  6  1  0  0  0  0
  8 10  1  0  0  0  0
  8  9  1  1  0  0  0
 10 11  1  1  0  0  0
 12 13  1  6  0  0  0
 12  7  1  0  0  0  0
 12 10  1  0  0  0  0
 14 13  1  0  0  0  0
 15 16  1  0  0  0  0
 15 14  2  0  0  0  0
 16 23  2  0  0  0  0
 17 16  1  0  0  0  0
 17 19  1  0  0  0  0
 18 17  2  0  0  0  0
 19 20  2  0  0  0  0
 20 22  1  0  0  0  0
 20 21  1  0  0  0  0
 23 13  1  0  0  0  0
 23 22  1  0  0  0  0
 24 25  2  6  0  0  0
 24  9  1  0  0  0  0
 24 26  1  0  0  0  0
 27 28  1  0  0  0  0
 27 24  1  0  0  0  0
 29 30  1  6  0  0  0
 29 28  1  0  0  0  0
 31 32  1  1  0  0  0
 31 29  1  0  0  0  0
 33 34  1  1  0  0  0
 33 35  1  0  0  0  0
 33 31  1  0  0  0  0
 35 36  1  6  0  0  0
 35 30  1  0  0  0  0
 36 37  1  0  0  0  0
 38 37  2  0  0  0  0
 39 38  1  0  0  0  0
 40 41  2  0  0  0  0
 40 39  1  0  0  0  0
 42 40  1  0  0  0  0
 43 42  2  0  0  0  0
 43 45  1  0  0  0  0
 44 43  1  0  0  0  0
 45 46  1  0  0  0  0
 46 39  2  0  0  0  0
 46 36  1  0  0  0  0
M  END
>  <CHROM.1>
48.51666932,-17.92183505,159.16348433,45.35836043,146.66726968,0.18178673
0.23205798,2.10470454

>  <Name>
lig.pdb

>  <RI>
0

>  <Rbt.Current_Directory>
/home/itssahil/PROJECTS/Mol_Feturizer/New_Systems/rnas/4yb0

>  <Rbt.Executable>
rbdock ($Id: //depot/dev/client3/rdock/2013.1/src/exe/rbdock.cxx#4 $)

>  <Rbt.Library>
libRbt.so (2013.1, Build901 2013/11/27)

>  <Rbt.Parameter_File>
/export/apps/rDock/src/rDock_2013.1_src/data/scripts/dock_solv.prm

>  <Rbt.Receptor>
prm/pocket_docking_8.prm

>  <SCORE>
-24.5198

>  <SCORE.INTER>
-24.3967

>  <SCORE.INTER.CONST>
1

>  <SCORE.INTER.POLAR>
0

>  <SCORE.INTER.ROT>
2

>  <SCORE.INTER.SOLV>
17.763

>  <SCORE.INTER.VDW>
-27.1188

>  <SCORE.INTER.norm>
-0.530362

>  <SCORE.INTRA>
-0.123105

>  <SCORE.INTRA.DIHEDRAL>
-0.0160765

>  <SCORE.INTRA.DIHEDRAL.0>
4.74153

>  <SCORE.INTRA.POLAR>
0

>  <SCORE.INTRA.POLAR.0>
0

>  <SCORE.INTRA.REPUL>
0

>  <SCORE.INTRA.REPUL.0>
0

>  <SCORE.INTRA.SOLV>
-0.0392398

>  <SCORE.INTRA.SOLV.lig_0>
-60.4375

>  <SCORE.INTRA.VDW>
-0.095447

>  <SCORE.INTRA.VDW.0>
-1.83689

>  <SCORE.INTRA.norm>
-0.0026762

>  <SCORE.RESTR>
0

>  <SCORE.RESTR.CAVITY>
0

>  <SCORE.RESTR.norm>
0

>  <SCORE.SYSTEM>
0

>  <SCORE.SYSTEM.CONST>
0

>  <SCORE.SYSTEM.DIHEDRAL>
0

>  <SCORE.SYSTEM.SOLV>
0

>  <SCORE.SYSTEM.norm>
0

>  <SCORE.heavy>
46

>  <SCORE.norm>
-0.533039

>  <RMSD>
5.385

$$$$
lig.pdb
 OpenBabel11021811523D
libRbt.so/2013.1/901 2013/11/27
 46 52  0  0  0  0  0  0  0  0999 V2000
  160.0596   41.8855  147.5228 P   0  0  2  0  0  0  0  0  0  0  0  0
  160.8370   40.7207  148.0959 O   0  0  0  0  0  0  0  0  0  0  0  0
  159.4944   41.7069  146.1373 O   0  0  0  0  0  0  0  0  0  0  0  0
  160.9317   43.2361  147.5419 O   0  0  0  0  0  0  0  0  0  0  0  0
  162.1759   43.3091  148.2257 C   0  0  0  0  0  0  0  0  0  0  0  0
  162.5801   44.7617  148.4164 C   0  0  1  0  0  0  0  0  0  0  0  0
  163.5877   45.0664  147.4626 O   0  0  0  0  0  0  0  0  0  0  0  0
  161.4727   45.7870  148.2084 C   0  0  1  0  0  0  0  0  0  0  0  0
  161.0196   46.2631  149.4672 O   0  0  0  0  0  0  0  0  0  0  0  0
  162.1743   46.9247  147.5010 C   0  0  1  0  0  0  0  0  0  0  0  0
  162.6923   47.8428  148.4656 O   0  0  0  0  0  0  0  0  0  0  0  0
  163.3552   46.3058  146.8111 C   0  0  2  0  0  0  0  0  0  0  0  0
  163.0071   46.0390  145.3953 N   0  0  0  0  0  0  0  0  0  0  0  0
  163.3400   44.9370  144.7009 C   0  0  0  0  0  0  0  0  0  0  0  0
  162.8801   45.0171  143.4292 N   0  0  0  0  0  0  0  0  0  0  0  0
  162.2373   46.1905  143.2919 C   0  0  0  0  0  0  0  0  0  0  0  0
  161.5170   46.8973  142.2067 C   0  0  0  0  0  0  0  0  0  0  0  0
  161.4143   46.3748  141.0707 O   0  0  0  0  0  0  0  0  0  0  0  0
  160.9895   48.1020  142.4840 N   0  0  0  0  0  0  0  0  0  0  0  0
  161.1038   48.6591  143.7045 C   0  0  0  0  0  0  0  0  0  0  0  0
  160.5490   49.8714  143.9277 N   0  0  0  0  0  0  0  0  0  0  0  0
  161.7471   48.0695  144.7376 N   0  0  0  0  0  0  0  0  0  0  0  0
  162.3243   46.8573  144.5948 C   0  0  0  0  0  0  0  0  0  0  0  0
  159.6744   47.1531  149.6525 P   0  0  2  0  0  0  0  0  0  0  0  0
  159.6903   48.2884  148.6580 O   0  0  0  0  0  0  0  0  0  0  0  0
  159.5503   47.4215  151.1406 O   0  0  0  0  0  0  0  0  0  0  0  0
  158.5142   46.1259  149.1959 O   0  0  0  0  0  0  0  0  0  0  0  0
  158.0455   45.1274  150.1012 C   0  0  0  0  0  0  0  0  0  0  0  0
  157.3158   43.9755  149.4032 C   0  0  1  0  0  0  0  0  0  0  0  0
  156.0307   44.4247  148.9678 O   0  0  0  0  0  0  0  0  0  0  0  0
  158.0255   43.4096  148.1751 C   0  0  1  0  0  0  0  0  0  0  0  0
  158.8299   42.2740  148.4904 O   0  0  0  0  0  0  0  0  0  0  0  0
  156.8632   43.0369  147.2739 C   0  0  1  0  0  0  0  0  0  0  0  0
  156.3945   41.7178  147.5673 O   0  0  0  0  0  0  0  0  0  0  0  0
  155.7528   44.0032  147.6299 C   0  0  2  0  0  0  0  0  0  0  0  0
  155.8172   45.1845  146.7340 N   0  0  0  0  0  0  0  0  0  0  0  0
  156.6589   46.2285  146.8690 C   0  0  0  0  0  0  0  0  0  0  0  0
  156.4854   47.1511  145.8820 N   0  0  0  0  0  0  0  0  0  0  0  0
  155.5109   46.6936  145.0799 C   0  0  0  0  0  0  0  0  0  0  0  0
  154.8178   47.1723  143.8567 C   0  0  0  0  0  0  0  0  0  0  0  0
  155.1161   48.2490  143.2965 O   0  0  0  0  0  0  0  0  0  0  0  0
  153.8633   46.3931  143.3455 N   0  0  0  0  0  0  0  0  0  0  0  0
  153.5106   45.2258  143.9058 C   0  0  0  0  0  0  0  0  0  0  0  0
  152.5279   44.5293  143.3156 N   0  0  0  0  0  0  0  0  0  0  0  0
  154.0880   44.7268  145.0238 N   0  0  0  0  0  0  0  0  0  0  0  0
  155.0760   45.4018  145.6479 C   0  0  0  0  0  0  0  0  0  0  0  0
  1  3  2  6  0  0  0
  1 32  1  0  0  0  0
  1  2  1  0  0  0  0
  1  4  1  0  0  0  0
  4  5  1  0  0  0  0
  6  5  1  6  0  0  0
  7  6  1  0  0  0  0
  8  6  1  0  0  0  0
  8 10  1  0  0  0  0
  8  9  1  1  0  0  0
 10 11  1  1  0  0  0
 12 13  1  6  0  0  0
 12  7  1  0  0  0  0
 12 10  1  0  0  0  0
 14 13  1  0  0  0  0
 15 16  1  0  0  0  0
 15 14  2  0  0  0  0
 16 23  2  0  0  0  0
 17 16  1  0  0  0  0
 17 19  1  0  0  0  0
 18 17  2  0  0  0  0
 19 20  2  0  0  0  0
 20 22  1  0  0  0  0
 20 21  1  0  0  0  0
 23 13  1  0  0  0  0
 23 22  1  0  0  0  0
 24 25  2  6  0  0  0
 24  9  1  0  0  0  0
 24 26  1  0  0  0  0
 27 28  1  0  0  0  0
 27 24  1  0  0  0  0
 29 30  1  6  0  0  0
 29 28  1  0  0  0  0
 31 32  1  1  0  0  0
 31 29  1  0  0  0  0
 33 34  1  1  0  0  0
 33 35  1  0  0  0  0
 33 31  1  0  0  0  0
 35 36  1  6  0  0  0
 35 30  1  0  0  0  0
 36 37  1  0  0  0  0
 38 37  2  0  0  0  0
 39 38  1  0  0  0  0
 40 41  2  0  0  0  0
 40 39  1  0  0  0  0
 42 40  1  0  0  0  0
 43 42  2  0  0  0  0
 43 45  1  0  0  0  0
 44 43  1  0  0  0  0
 45 46  1  0  0  0  0
 46 39  2  0  0  0  0
 46 36  1  0  0  0  0
M  END
>  <CHROM.1>
-23.59723498,34.86921305,159.18971572,45.44694102,146.55873833,0.07979577
0.16320296,2.14542819

>  <Name>
lig.pdb

>  <RI>
0

>  <Rbt.Current_Directory>
/home/itssahil/PROJECTS/Mol_Feturizer/New_Systems/rnas/4yb0

>  <Rbt.Executable>
rbdock ($Id: //depot/dev/client3/rdock/2013.1/src/exe/rbdock.cxx#4 $)

>  <Rbt.Library>
libRbt.so (2013.1, Build901 2013/11/27)

>  <Rbt.Parameter_File>
/export/apps/rDock/src/rDock_2013.1_src/data/scripts/dock_solv.prm

>  <Rbt.Receptor>
prm/pocket_docking_7.prm

>  <SCORE>
-21.0327

>  <SCORE.INTER>
-21.2864

>  <SCORE.INTER.CONST>
1

>  <SCORE.INTER.POLAR>
0

>  <SCORE.INTER.ROT>
2

>  <SCORE.INTER.SOLV>
18.87

>  <SCORE.INTER.VDW>
-25.4143

>  <SCORE.INTER.norm>
-0.462748

>  <SCORE.INTRA>
0.253715

>  <SCORE.INTRA.DIHEDRAL>
0.159952

>  <SCORE.INTRA.DIHEDRAL.0>
4.74153

>  <SCORE.INTRA.POLAR>
0

>  <SCORE.INTRA.POLAR.0>
0

>  <SCORE.INTRA.REPUL>
0.00164819

>  <SCORE.INTRA.REPUL.0>
0

>  <SCORE.INTRA.SOLV>
0.229602

>  <SCORE.INTRA.SOLV.lig_0>
-60.4375

>  <SCORE.INTRA.VDW>
0.0506966

>  <SCORE.INTRA.VDW.0>
-1.83689

>  <SCORE.INTRA.norm>
0.00551553

>  <SCORE.RESTR>
0

>  <SCORE.RESTR.CAVITY>
0

>  <SCORE.RESTR.norm>
0

>  <SCORE.SYSTEM>
0

>  <SCORE.SYSTEM.CONST>
0

>  <SCORE.SYSTEM.DIHEDRAL>
0

>  <SCORE.SYSTEM.SOLV>
0

>  <SCORE.SYSTEM.norm>
0

>  <SCORE.heavy>
46

>  <SCORE.norm>
-0.457232

>  <RMSD>
5.400

$$$$
lig.pdb
 OpenBabel11021811523D
libRbt.so/2013.1/901 2013/11/27
 46 52  0  0  0  0  0  0  0  0999 V2000
  161.5308   47.1640  147.8564 P   0  0  2  0  0  0  0  0  0  0  0  0
  162.8528   47.5890  148.4576 O   0  0  0  0  0  0  0  0  0  0  0  0
  160.4650   46.7063  148.8185 O   0  0  0  0  0  0  0  0  0  0  0  0
  161.7347   46.0185  146.7468 O   0  0  0  0  0  0  0  0  0  0  0  0
  163.0276   45.6579  146.2782 C   0  0  0  0  0  0  0  0  0  0  0  0
  162.9100   44.8632  144.9881 C   0  0  1  0  0  0  0  0  0  0  0  0
  163.1216   43.4925  145.2954 O   0  0  0  0  0  0  0  0  0  0  0  0
  161.5594   44.9391  144.2875 C   0  0  1  0  0  0  0  0  0  0  0  0
  161.6509   45.8049  143.1657 O   0  0  0  0  0  0  0  0  0  0  0  0
  161.3472   43.5311  143.7780 C   0  0  1  0  0  0  0  0  0  0  0  0
  161.8976   43.4080  142.4650 O   0  0  0  0  0  0  0  0  0  0  0  0
  162.1632   42.6479  144.6766 C   0  0  2  0  0  0  0  0  0  0  0  0
  161.2858   42.0779  145.7264 N   0  0  0  0  0  0  0  0  0  0  0  0
  160.0703   41.5400  145.5244 C   0  0  0  0  0  0  0  0  0  0  0  0
  159.5305   41.1270  146.6963 N   0  0  0  0  0  0  0  0  0  0  0  0
  160.4079   41.4003  147.6783 C   0  0  0  0  0  0  0  0  0  0  0  0
  160.4616   41.2201  149.1482 C   0  0  0  0  0  0  0  0  0  0  0  0
  159.4992   40.6932  149.7565 O   0  0  0  0  0  0  0  0  0  0  0  0
  161.5641   41.6398  149.7924 N   0  0  0  0  0  0  0  0  0  0  0  0
  162.5937   42.2061  149.1350 C   0  0  0  0  0  0  0  0  0  0  0  0
  163.6796   42.6051  149.8343 N   0  0  0  0  0  0  0  0  0  0  0  0
  162.6094   42.4004  147.7968 N   0  0  0  0  0  0  0  0  0  0  0  0
  161.5640   42.0258  147.0288 C   0  0  0  0  0  0  0  0  0  0  0  0
  160.3566   46.3412  142.3451 P   0  0  2  0  0  0  0  0  0  0  0  0
  159.4626   45.1721  142.0104 O   0  0  0  0  0  0  0  0  0  0  0  0
  160.8968   47.2471  141.2545 O   0  0  0  0  0  0  0  0  0  0  0  0
  159.5910   47.2347  143.4518 O   0  0  0  0  0  0  0  0  0  0  0  0
  160.0339   48.5622  143.7311 C   0  0  0  0  0  0  0  0  0  0  0  0
  159.5339   49.0938  145.0780 C   0  0  1  0  0  0  0  0  0  0  0  0
  158.1411   49.3984  144.9782 O   0  0  0  0  0  0  0  0  0  0  0  0
  159.6928   48.1312  146.2528 C   0  0  1  0  0  0  0  0  0  0  0  0
  160.8979   48.3611  146.9815 O   0  0  0  0  0  0  0  0  0  0  0  0
  158.4665   48.4401  147.0912 C   0  0  1  0  0  0  0  0  0  0  0  0
  158.7238   49.5232  147.9892 O   0  0  0  0  0  0  0  0  0  0  0  0
  157.4140   48.9062  146.1071 C   0  0  2  0  0  0  0  0  0  0  0  0
  156.5902   47.7493  145.6769 N   0  0  0  0  0  0  0  0  0  0  0  0
  156.1796   47.5016  144.4173 C   0  0  0  0  0  0  0  0  0  0  0  0
  155.4486   46.3550  144.3381 N   0  0  0  0  0  0  0  0  0  0  0  0
  155.3870   45.8390  145.5759 C   0  0  0  0  0  0  0  0  0  0  0  0
  154.7636   44.6496  146.2104 C   0  0  0  0  0  0  0  0  0  0  0  0
  154.1130   43.8062  145.5566 O   0  0  0  0  0  0  0  0  0  0  0  0
  154.9411   44.4882  147.5226 N   0  0  0  0  0  0  0  0  0  0  0  0
  155.6362   45.3618  148.2674 C   0  0  0  0  0  0  0  0  0  0  0  0
  155.7399   45.1085  149.5805 N   0  0  0  0  0  0  0  0  0  0  0  0
  156.2255   46.4720  147.7650 N   0  0  0  0  0  0  0  0  0  0  0  0
  156.1380   46.7623  146.4500 C   0  0  0  0  0  0  0  0  0  0  0  0
  1  3  2  1  0  0  0
  1 32  1  0  0  0  0
  1  2  1  0  0  0  0
  1  4  1  0  0  0  0
  4  5  1  0  0  0  0
  6  5  1  1  0  0  0
  7  6  1  0  0  0  0
  8  6  1  0  0  0  0
  8 10  1  0  0  0  0
  8  9  1  6  0  0  0
 10 11  1  6  0  0  0
 12 13  1  1  0  0  0
 12  7  1  0  0  0  0
 12 10  1  0  0  0  0
 14 13  1  0  0  0  0
 15 16  1  0  0  0  0
 15 14  2  0  0  0  0
 16 23  2  0  0  0  0
 17 16  1  0  0  0  0
 17 19  1  0  0  0  0
 18 17  2  0  0  0  0
 19 20  2  0  0  0  0
 20 22  1  0  0  0  0
 20 21  1  0  0  0  0
 23 13  1  0  0  0  0
 23 22  1  0  0  0  0
 24 25  2  6  0  0  0
 24  9  1  0  0  0  0
 24 26  1  0  0  0  0
 27 28  1  0  0  0  0
 27 24  1  0  0  0  0
 29 30  1  6  0  0  0
 29 28  1  0  0  0  0
 31 32  1  1  0  0  0
 31 29  1  0  0  0  0
 33 34  1  1  0  0  0
 33 35  1  0  0  0  0
 33 31  1  0  0  0  0
 35 36  1  6  0  0  0
 35 30  1  0  0  0  0
 36 37  1  0  0  0  0
 38 37  2  0  0  0  0
 39 38  1  0  0  0  0
 40 41  2  0  0  0  0
 40 39  1  0  0  0  0
 42 40  1  0  0  0  0
 43 42  2  0  0  0  0
 43 45  1  0  0  0  0
 44 43  1  0  0  0  0
 45 46  1  0  0  0  0
 46 39  2  0  0  0  0
 46 36  1  0  0  0  0
M  END
>  <CHROM.1>
160.90457557,-23.12966887,159.72270222,45.37873585,146.06767735,-0.80872006
0.37660683,-0.74638795

>  <Name>
lig.pdb

>  <RI>
0

>  <Rbt.Current_Directory>
/home/itssahil/PROJECTS/Mol_Feturizer/New_Systems/rnas/4yb0

>  <Rbt.Executable>
rbdock ($Id: //depot/dev/client3/rdock/2013.1/src/exe/rbdock.cxx#4 $)

>  <Rbt.Library>
libRbt.so (2013.1, Build901 2013/11/27)

>  <Rbt.Parameter_File>
/export/apps/rDock/src/rDock_2013.1_src/data/scripts/dock_solv.prm

>  <Rbt.Receptor>
prm/pocket_docking_6.prm

>  <SCORE>
-21.6745

>  <SCORE.INTER>
-21.929

>  <SCORE.INTER.CONST>
1

>  <SCORE.INTER.POLAR>
0

>  <SCORE.INTER.ROT>
2

>  <SCORE.INTER.SOLV>
17.2804

>  <SCORE.INTER.VDW>
-25.3128

>  <SCORE.INTER.norm>
-0.476717

>  <SCORE.INTRA>
0.254527

>  <SCORE.INTRA.DIHEDRAL>
-0.0363586

>  <SCORE.INTRA.DIHEDRAL.0>
4.74153

>  <SCORE.INTRA.POLAR>
0

>  <SCORE.INTRA.POLAR.0>
0

>  <SCORE.INTRA.REPUL>
0.0269897

>  <SCORE.INTRA.REPUL.0>
0

>  <SCORE.INTRA.SOLV>
0.269527

>  <SCORE.INTRA.SOLV.lig_0>
-60.4375

>  <SCORE.INTRA.VDW>
0.00299366

>  <SCORE.INTRA.VDW.0>
-1.83689

>  <SCORE.INTRA.norm>
0.00553319

>  <SCORE.RESTR>
0

>  <SCORE.RESTR.CAVITY>
0

>  <SCORE.RESTR.norm>
0

>  <SCORE.SYSTEM>
0

>  <SCORE.SYSTEM.CONST>
0

>  <SCORE.SYSTEM.DIHEDRAL>
0

>  <SCORE.SYSTEM.SOLV>
0

>  <SCORE.SYSTEM.norm>
0

>  <SCORE.heavy>
46

>  <SCORE.norm>
-0.471184

>  <RMSD>
5.480

$$$$
lig.pdb
 OpenBabel11021811523D
libRbt.so/2013.1/901 2013/11/27
 46 52  0  0  0  0  0  0  0  0999 V2000
  160.6543   44.8088  149.5768 P   0  0  2  0  0  0  0  0  0  0  0  0
  161.6527   44.6051  150.6954 O   0  0  0  0  0  0  0  0  0  0  0  0
  160.4258   43.6414  148.6516 O   0  0  0  0  0  0  0  0  0  0  0  0
  161.0292   46.0933  148.6855 O   0  0  0  0  0  0  0  0  0  0  0  0
  162.0455   47.0043  149.0833 C   0  0  0  0  0  0  0  0  0  0  0  0
  161.9222   48.2976  148.2948 C   0  0  1  0  0  0  0  0  0  0  0  0
  162.9279   48.2984  147.2916 O   0  0  0  0  0  0  0  0  0  0  0  0
  160.5980   48.5047  147.5705 C   0  0  1  0  0  0  0  0  0  0  0  0
  159.8049   49.4424  148.2834 O   0  0  0  0  0  0  0  0  0  0  0  0
  161.0086   49.1373  146.2597 C   0  0  1  0  0  0  0  0  0  0  0  0
  161.0287   50.5594  146.3988 O   0  0  0  0  0  0  0  0  0  0  0  0
  162.4264   48.7027  146.0268 C   0  0  2  0  0  0  0  0  0  0  0  0
  162.4336   47.5321  145.1178 N   0  0  0  0  0  0  0  0  0  0  0  0
  163.0499   46.3608  145.3537 C   0  0  0  0  0  0  0  0  0  0  0  0
  162.8726   45.5103  144.3142 N   0  0  0  0  0  0  0  0  0  0  0  0
  162.1291   46.1372  143.3852 C   0  0  0  0  0  0  0  0  0  0  0  0
  161.5781   45.8049  142.0503 C   0  0  0  0  0  0  0  0  0  0  0  0
  161.7946   44.6800  141.5388 O   0  0  0  0  0  0  0  0  0  0  0  0
  160.8515   46.7433  141.4195 N   0  0  0  0  0  0  0  0  0  0  0  0
  160.6233   47.9497  141.9722 C   0  0  0  0  0  0  0  0  0  0  0  0
  159.8810   48.8531  141.2938 N   0  0  0  0  0  0  0  0  0  0  0  0
  161.0960   48.3175  143.1847 N   0  0  0  0  0  0  0  0  0  0  0  0
  161.8423   47.4700  143.9249 C   0  0  0  0  0  0  0  0  0  0  0  0
  158.2345   49.7059  147.9663 P   0  0  2  0  0  0  0  0  0  0  0  0
  158.0573   49.9178  146.4824 O   0  0  0  0  0  0  0  0  0  0  0  0
  157.7746   50.7524  148.9639 O   0  0  0  0  0  0  0  0  0  0  0  0
  157.5635   48.2837  148.3357 O   0  0  0  0  0  0  0  0  0  0  0  0
  157.2907   47.9530  149.6968 C   0  0  0  0  0  0  0  0  0  0  0  0
  157.1024   46.4502  149.9261 C   0  0  1  0  0  0  0  0  0  0  0  0
  155.8373   46.0463  149.3978 O   0  0  0  0  0  0  0  0  0  0  0  0
  158.1579   45.5591  149.2750 C   0  0  1  0  0  0  0  0  0  0  0  0
  159.2168   45.2299  150.1731 O   0  0  0  0  0  0  0  0  0  0  0  0
  157.3519   44.3327  148.8898 C   0  0  1  0  0  0  0  0  0  0  0  0
  157.2883   43.4040  149.9758 O   0  0  0  0  0  0  0  0  0  0  0  0
  155.9460   44.8378  148.6410 C   0  0  2  0  0  0  0  0  0  0  0  0
  155.7820   45.1594  147.2017 N   0  0  0  0  0  0  0  0  0  0  0  0
  156.7144   45.7282  146.4120 C   0  0  0  0  0  0  0  0  0  0  0  0
  156.2702   45.8846  145.1340 N   0  0  0  0  0  0  0  0  0  0  0  0
  155.0193   45.3993  145.0879 C   0  0  0  0  0  0  0  0  0  0  0  0
  153.9613   45.2623  144.0547 C   0  0  0  0  0  0  0  0  0  0  0  0
  154.1304   45.6267  142.8712 O   0  0  0  0  0  0  0  0  0  0  0  0
  152.8075   44.7046  144.4256 N   0  0  0  0  0  0  0  0  0  0  0  0
  152.5792   44.2917  145.6819 C   0  0  0  0  0  0  0  0  0  0  0  0
  151.3777   43.7578  145.9478 N   0  0  0  0  0  0  0  0  0  0  0  0
  153.4884   44.3902  146.6798 N   0  0  0  0  0  0  0  0  0  0  0  0
  154.7055   44.9265  146.4512 C   0  0  0  0  0  0  0  0  0  0  0  0
  1  3  2  6  0  0  0
  1 32  1  0  0  0  0
  1  2  1  0  0  0  0
  1  4  1  0  0  0  0
  4  5  1  0  0  0  0
  6  5  1  6  0  0  0
  7  6  1  0  0  0  0
  8  6  1  0  0  0  0
  8 10  1  0  0  0  0
  8  9  1  1  0  0  0
 10 11  1  1  0  0  0
 12 13  1  6  0  0  0
 12  7  1  0  0  0  0
 12 10  1  0  0  0  0
 14 13  1  0  0  0  0
 15 16  1  0  0  0  0
 15 14  2  0  0  0  0
 16 23  2  0  0  0  0
 17 16  1  0  0  0  0
 17 19  1  0  0  0  0
 18 17  2  0  0  0  0
 19 20  2  0  0  0  0
 20 22  1  0  0  0  0
 20 21  1  0  0  0  0
 23 13  1  0  0  0  0
 23 22  1  0  0  0  0
 24 25  2  6  0  0  0
 24  9  1  0  0  0  0
 24 26  1  0  0  0  0
 27 28  1  0  0  0  0
 27 24  1  0  0  0  0
 29 30  1  6  0  0  0
 29 28  1  0  0  0  0
 31 32  1  1  0  0  0
 31 29  1  0  0  0  0
 33 34  1  1  0  0  0
 33 35  1  0  0  0  0
 33 31  1  0  0  0  0
 35 36  1  6  0  0  0
 35 30  1  0  0  0  0
 36 37  1  0  0  0  0
 38 37  2  0  0  0  0
 39 38  1  0  0  0  0
 40 41  2  0  0  0  0
 40 39  1  0  0  0  0
 42 40  1  0  0  0  0
 43 42  2  0  0  0  0
 43 45  1  0  0  0  0
 44 43  1  0  0  0  0
 45 46  1  0  0  0  0
 46 39  2  0  0  0  0
 46 36  1  0  0  0  0
M  END
>  <CHROM.1>
-12.10158971,76.33634463,158.77009216,46.62687779,146.68283171,-0.17751086
0.33569994,1.61156215

>  <Name>
lig.pdb

>  <RI>
0

>  <Rbt.Current_Directory>
/home/itssahil/PROJECTS/Mol_Feturizer/New_Systems/rnas/4yb0

>  <Rbt.Executable>
rbdock ($Id: //depot/dev/client3/rdock/2013.1/src/exe/rbdock.cxx#4 $)

>  <Rbt.Library>
libRbt.so (2013.1, Build901 2013/11/27)

>  <Rbt.Parameter_File>
/export/apps/rDock/src/rDock_2013.1_src/data/scripts/dock_solv.prm

>  <Rbt.Receptor>
prm/pocket_docking_6.prm

>  <SCORE>
-20.7001

>  <SCORE.INTER>
-21.0423

>  <SCORE.INTER.CONST>
1

>  <SCORE.INTER.POLAR>
0

>  <SCORE.INTER.ROT>
2

>  <SCORE.INTER.SOLV>
17.069

>  <SCORE.INTER.VDW>
-24.6512

>  <SCORE.INTER.norm>
-0.457442

>  <SCORE.INTRA>
0.342211

>  <SCORE.INTRA.DIHEDRAL>
0.0405192

>  <SCORE.INTRA.DIHEDRAL.0>
4.74153

>  <SCORE.INTRA.POLAR>
0

>  <SCORE.INTRA.POLAR.0>
0

>  <SCORE.INTRA.REPUL>
0

>  <SCORE.INTRA.REPUL.0>
0

>  <SCORE.INTRA.SOLV>
-0.0188428

>  <SCORE.INTRA.SOLV.lig_0>
-60.4375

>  <SCORE.INTRA.VDW>
0.331373

>  <SCORE.INTRA.VDW.0>
-1.83689

>  <SCORE.INTRA.norm>
0.00743936

>  <SCORE.RESTR>
0

>  <SCORE.RESTR.CAVITY>
0

>  <SCORE.RESTR.norm>
0

>  <SCORE.SYSTEM>
0

>  <SCORE.SYSTEM.CONST>
0

>  <SCORE.SYSTEM.DIHEDRAL>
0

>  <SCORE.SYSTEM.SOLV>
0

>  <SCORE.SYSTEM.norm>
0

>  <SCORE.heavy>
46

>  <SCORE.norm>
-0.450002

>  <RMSD>
5.480

$$$$
lig.pdb
 OpenBabel11021811523D
libRbt.so/2013.1/901 2013/11/27
 46 52  0  0  0  0  0  0  0  0999 V2000
  157.0260   45.1458  145.7305 P   0  0  2  0  0  0  0  0  0  0  0  0
  155.9763   44.3614  146.4870 O   0  0  0  0  0  0  0  0  0  0  0  0
  156.6241   45.6933  144.3852 O   0  0  0  0  0  0  0  0  0  0  0  0
  158.3742   44.2896  145.5445 O   0  0  0  0  0  0  0  0  0  0  0  0
  158.5703   43.0540  146.2198 C   0  0  0  0  0  0  0  0  0  0  0  0
  160.0400   42.6689  146.1829 C   0  0  1  0  0  0  0  0  0  0  0  0
  160.2040   41.6542  145.2024 O   0  0  0  0  0  0  0  0  0  0  0  0
  161.0051   43.7856  145.8058 C   0  0  1  0  0  0  0  0  0  0  0  0
  161.6674   44.2583  146.9696 O   0  0  0  0  0  0  0  0  0  0  0  0
  162.0263   43.0894  144.9344 C   0  0  1  0  0  0  0  0  0  0  0  0
  163.0917   42.5928  145.7471 O   0  0  0  0  0  0  0  0  0  0  0  0
  161.3222   41.8938  144.3616 C   0  0  2  0  0  0  0  0  0  0  0  0
  160.8313   42.2229  143.0024 N   0  0  0  0  0  0  0  0  0  0  0  0
  161.3377   43.1710  142.1948 C   0  0  0  0  0  0  0  0  0  0  0  0
  160.6484   43.2235  141.0297 N   0  0  0  0  0  0  0  0  0  0  0  0
  159.6766   42.2951  141.0784 C   0  0  0  0  0  0  0  0  0  0  0  0
  158.5969   41.8255  140.1786 C   0  0  0  0  0  0  0  0  0  0  0  0
  158.4382   42.3536  139.0517 O   0  0  0  0  0  0  0  0  0  0  0  0
  157.8062   40.8293  140.6131 N   0  0  0  0  0  0  0  0  0  0  0  0
  157.9797   40.2668  141.8241 C   0  0  0  0  0  0  0  0  0  0  0  0
  157.1572   39.2647  142.2068 N   0  0  0  0  0  0  0  0  0  0  0  0
  158.9435   40.6470  142.6932 N   0  0  0  0  0  0  0  0  0  0  0  0
  159.8061   41.6382  142.3829 C   0  0  0  0  0  0  0  0  0  0  0  0
  162.5576   45.6157  146.9999 P   0  0  2  0  0  0  0  0  0  0  0  0
  163.5223   45.6018  145.8392 O   0  0  0  0  0  0  0  0  0  0  0  0
  163.0553   45.7596  148.4259 O   0  0  0  0  0  0  0  0  0  0  0  0
  161.4562   46.7587  146.7002 O   0  0  0  0  0  0  0  0  0  0  0  0
  160.6066   47.2260  147.7472 C   0  0  0  0  0  0  0  0  0  0  0  0
  159.3496   47.9344  147.2326 C   0  0  1  0  0  0  0  0  0  0  0  0
  159.7077   49.2196  146.7201 O   0  0  0  0  0  0  0  0  0  0  0  0
  158.6069   47.2045  146.1157 C   0  0  1  0  0  0  0  0  0  0  0  0
  157.5457   46.3906  146.6134 O   0  0  0  0  0  0  0  0  0  0  0  0
  158.0816   48.3522  145.2737 C   0  0  1  0  0  0  0  0  0  0  0  0
  156.8191   48.8089  145.7670 O   0  0  0  0  0  0  0  0  0  0  0  0
  159.0772   49.4777  145.4628 C   0  0  2  0  0  0  0  0  0  0  0  0
  160.1034   49.4169  144.3926 N   0  0  0  0  0  0  0  0  0  0  0  0
  161.4331   49.3077  144.5838 C   0  0  0  0  0  0  0  0  0  0  0  0
  162.1134   49.2633  143.4047 N   0  0  0  0  0  0  0  0  0  0  0  0
  161.2038   49.3386  142.4202 C   0  0  0  0  0  0  0  0  0  0  0  0
  161.2319   49.3587  140.9354 C   0  0  0  0  0  0  0  0  0  0  0  0
  162.2956   49.2717  140.2850 O   0  0  0  0  0  0  0  0  0  0  0  0
  160.0630   49.4494  140.2990 N   0  0  0  0  0  0  0  0  0  0  0  0
  158.8937   49.5390  140.9513 C   0  0  0  0  0  0  0  0  0  0  0  0
  157.7797   49.6401  140.2111 N   0  0  0  0  0  0  0  0  0  0  0  0
  158.7866   49.5361  142.3007 N   0  0  0  0  0  0  0  0  0  0  0  0
  159.8857   49.4412  143.0780 C   0  0  0  0  0  0  0  0  0  0  0  0
  1  3  2  6  0  0  0
  1 32  1  0  0  0  0
  1  2  1  0  0  0  0
  1  4  1  0  0  0  0
  4  5  1  0  0  0  0
  6  5  1  6  0  0  0
  7  6  1  0  0  0  0
  8  6  1  0  0  0  0
  8 10  1  0  0  0  0
  8  9  1  1  0  0  0
 10 11  1  1  0  0  0
 12 13  1  6  0  0  0
 12  7  1  0  0  0  0
 12 10  1  0  0  0  0
 14 13  1  0  0  0  0
 15 16  1  0  0  0  0
 15 14  2  0  0  0  0
 16 23  2  0  0  0  0
 17 16  1  0  0  0  0
 17 19  1  0  0  0  0
 18 17  2  0  0  0  0
 19 20  2  0  0  0  0
 20 22  1  0  0  0  0
 20 21  1  0  0  0  0
 23 13  1  0  0  0  0
 23 22  1  0  0  0  0
 24 25  2  6  0  0  0
 24  9  1  0  0  0  0
 24 26  1  0  0  0  0
 27 28  1  0  0  0  0
 27 24  1  0  0  0  0
 29 30  1  6  0  0  0
 29 28  1  0  0  0  0
 31 32  1  1  0  0  0
 31 29  1  0  0  0  0
 33 34  1  1  0  0  0
 33 35  1  0  0  0  0
 33 31  1  0  0  0  0
 35 36  1  6  0  0  0
 35 30  1  0  0  0  0
 36 37  1  0  0  0  0
 38 37  2  0  0  0  0
 39 38  1  0  0  0  0
 40 41  2  0  0  0  0
 40 39  1  0  0  0  0
 42 40  1  0  0  0  0
 43 42  2  0  0  0  0
 43 45  1  0  0  0  0
 44 43  1  0  0  0  0
 45 46  1  0  0  0  0
 46 39  2  0  0  0  0
 46 36  1  0  0  0  0
M  END
>  <CHROM.1>
139.46902590,-7.77110463,159.81209279,45.47445266,144.24130800,-1.97953759
-1.28242894,-0.18289238

>  <Name>
lig.pdb

>  <RI>
0

>  <Rbt.Current_Directory>
/home/itssahil/PROJECTS/Mol_Feturizer/New_Systems/rnas/4yb0

>  <Rbt.Executable>
rbdock ($Id: //depot/dev/client3/rdock/2013.1/src/exe/rbdock.cxx#4 $)

>  <Rbt.Library>
libRbt.so (2013.1, Build901 2013/11/27)

>  <Rbt.Parameter_File>
/export/apps/rDock/src/rDock_2013.1_src/data/scripts/dock_solv.prm

>  <Rbt.Receptor>
prm/pocket_docking_7.prm

>  <SCORE>
-20.499

>  <SCORE.INTER>
-21.4958

>  <SCORE.INTER.CONST>
1

>  <SCORE.INTER.POLAR>
0

>  <SCORE.INTER.ROT>
2

>  <SCORE.INTER.SOLV>
21.7512

>  <SCORE.INTER.VDW>
-26.5143

>  <SCORE.INTER.norm>
-0.4673

>  <SCORE.INTRA>
0.996804

>  <SCORE.INTRA.DIHEDRAL>
-0.00619686

>  <SCORE.INTRA.DIHEDRAL.0>
4.74153

>  <SCORE.INTRA.POLAR>
0

>  <SCORE.INTRA.POLAR.0>
0

>  <SCORE.INTRA.REPUL>
0.062381

>  <SCORE.INTRA.REPUL.0>
0

>  <SCORE.INTRA.SOLV>
0.150251

>  <SCORE.INTRA.SOLV.lig_0>
-60.4375

>  <SCORE.INTRA.VDW>
0.612872

>  <SCORE.INTRA.VDW.0>
-1.83689

>  <SCORE.INTRA.norm>
0.0216697

>  <SCORE.RESTR>
0

>  <SCORE.RESTR.CAVITY>
0

>  <SCORE.RESTR.norm>
0

>  <SCORE.SYSTEM>
0

>  <SCORE.SYSTEM.CONST>
0

>  <SCORE.SYSTEM.DIHEDRAL>
0

>  <SCORE.SYSTEM.SOLV>
0

>  <SCORE.SYSTEM.norm>
0

>  <SCORE.heavy>
46

>  <SCORE.norm>
-0.445631

>  <RMSD>
5.502

$$$$
lig.pdb
 OpenBabel11021811523D
libRbt.so/2013.1/901 2013/11/27
 46 52  0  0  0  0  0  0  0  0999 V2000
  162.1585   48.3719  147.6559 P   0  0  2  0  0  0  0  0  0  0  0  0
  163.4837   49.1010  147.6976 O   0  0  0  0  0  0  0  0  0  0  0  0
  161.6013   47.9030  148.9753 O   0  0  0  0  0  0  0  0  0  0  0  0
  162.2147   47.1140  146.6561 O   0  0  0  0  0  0  0  0  0  0  0  0
  163.3196   46.9030  145.7867 C   0  0  0  0  0  0  0  0  0  0  0  0
  162.9459   45.9042  144.7039 C   0  0  1  0  0  0  0  0  0  0  0  0
  163.5338   44.6546  145.0368 O   0  0  0  0  0  0  0  0  0  0  0  0
  161.4547   45.6418  144.5349 C   0  0  1  0  0  0  0  0  0  0  0  0
  160.9776   46.3205  143.3824 O   0  0  0  0  0  0  0  0  0  0  0  0
  161.3868   44.1552  144.2663 C   0  0  1  0  0  0  0  0  0  0  0  0
  161.4759   43.9172  142.8601 O   0  0  0  0  0  0  0  0  0  0  0  0
  162.6251   43.5748  144.8853 C   0  0  2  0  0  0  0  0  0  0  0  0
  162.2941   43.0419  146.2282 N   0  0  0  0  0  0  0  0  0  0  0  0
  163.1789   42.5695  147.1235 C   0  0  0  0  0  0  0  0  0  0  0  0
  162.5449   42.1459  148.2432 N   0  0  0  0  0  0  0  0  0  0  0  0
  161.2254   42.3448  148.0753 C   0  0  0  0  0  0  0  0  0  0  0  0
  159.9974   42.1195  148.8736 C   0  0  0  0  0  0  0  0  0  0  0  0
  160.0716   41.6120  150.0186 O   0  0  0  0  0  0  0  0  0  0  0  0
  158.8206   42.4728  148.3289 N   0  0  0  0  0  0  0  0  0  0  0  0
  158.7463   43.0157  147.0990 C   0  0  0  0  0  0  0  0  0  0  0  0
  157.5356   43.3563  146.6034 N   0  0  0  0  0  0  0  0  0  0  0  0
  159.8259   43.2478  146.3183 N   0  0  0  0  0  0  0  0  0  0  0  0
  161.0694   42.9383  146.7437 C   0  0  0  0  0  0  0  0  0  0  0  0
  159.4003   46.4964  143.0400 P   0  0  2  0  0  0  0  0  0  0  0  0
  158.7151   45.1567  143.1584 O   0  0  0  0  0  0  0  0  0  0  0  0
  159.3370   47.2936  141.7507 O   0  0  0  0  0  0  0  0  0  0  0  0
  158.8811   47.4153  144.2629 O   0  0  0  0  0  0  0  0  0  0  0  0
  159.1002   48.8253  144.2418 C   0  0  0  0  0  0  0  0  0  0  0  0
  158.9822   49.4745  145.6242 C   0  0  1  0  0  0  0  0  0  0  0  0
  157.6062   49.5236  146.0074 O   0  0  0  0  0  0  0  0  0  0  0  0
  159.7273   48.7517  146.7442 C   0  0  1  0  0  0  0  0  0  0  0  0
  161.0296   49.2920  146.9642 O   0  0  0  0  0  0  0  0  0  0  0  0
  158.8190   48.9824  147.9374 C   0  0  1  0  0  0  0  0  0  0  0  0
  159.1279   50.2225  148.5798 O   0  0  0  0  0  0  0  0  0  0  0  0
  157.4233   49.1041  147.3623 C   0  0  2  0  0  0  0  0  0  0  0  0
  156.7677   47.7728  147.3656 N   0  0  0  0  0  0  0  0  0  0  0  0
  156.7461   46.9096  148.4005 C   0  0  0  0  0  0  0  0  0  0  0  0
  156.0540   45.7754  148.1009 N   0  0  0  0  0  0  0  0  0  0  0  0
  155.6075   45.9055  146.8416 C   0  0  0  0  0  0  0  0  0  0  0  0
  154.8207   45.0764  145.8934 C   0  0  0  0  0  0  0  0  0  0  0  0
  154.3691   43.9527  146.2024 O   0  0  0  0  0  0  0  0  0  0  0  0
  154.5818   45.5847  144.6833 N   0  0  0  0  0  0  0  0  0  0  0  0
  155.0392   46.7884  144.3055 C   0  0  0  0  0  0  0  0  0  0  0  0
  154.7517   47.1953  143.0601 N   0  0  0  0  0  0  0  0  0  0  0  0
  155.7693   47.5979  145.1079 N   0  0  0  0  0  0  0  0  0  0  0  0
  156.0825   47.2200  146.3650 C   0  0  0  0  0  0  0  0  0  0  0  0
  1  3  2  1  0  0  0
  1 32  1  0  0  0  0
  1  2  1  0  0  0  0
  1  4  1  0  0  0  0
  4  5  1  0  0  0  0
  6  5  1  1  0  0  0
  7  6  1  0  0  0  0
  8  6  1  0  0  0  0
  8 10  1  0  0  0  0
  8  9  1  6  0  0  0
 10 11  1  6  0  0  0
 12 13  1  1  0  0  0
 12  7  1  0  0  0  0
 12 10  1  0  0  0  0
 14 13  1  0  0  0  0
 15 16  1  0  0  0  0
 15 14  2  0  0  0  0
 16 23  2  0  0  0  0
 17 16  1  0  0  0  0
 17 19  1  0  0  0  0
 18 17  2  0  0  0  0
 19 20  2  0  0  0  0
 20 22  1  0  0  0  0
 20 21  1  0  0  0  0
 23 13  1  0  0  0  0
 23 22  1  0  0  0  0
 24 25  2  6  0  0  0
 24  9  1  0  0  0  0
 24 26  1  0  0  0  0
 27 28  1  0  0  0  0
 27 24  1  0  0  0  0
 29 30  1  1  0  0  0
 29 28  1  0  0  0  0
 31 32  1  1  0  0  0
 31 29  1  0  0  0  0
 33 34  1  6  0  0  0
 33 35  1  0  0  0  0
 33 31  1  0  0  0  0
 35 36  1  6  0  0  0
 35 30  1  0  0  0  0
 36 37  1  0  0  0  0
 38 37  2  0  0  0  0
 39 38  1  0  0  0  0
 40 41  2  0  0  0  0
 40 39  1  0  0  0  0
 42 40  1  0  0  0  0
 43 42  2  0  0  0  0
 43 45  1  0  0  0  0
 44 43  1  0  0  0  0
 45 46  1  0  0  0  0
 46 39  2  0  0  0  0
 46 36  1  0  0  0  0
M  END
>  <CHROM.1>
-57.70495958,161.59458808,159.49996020,46.06191971,146.06527801,-0.47876296
-0.11114279,-0.14457875

>  <Name>
lig.pdb

>  <RI>
0

>  <Rbt.Current_Directory>
/home/itssahil/PROJECTS/Mol_Feturizer/New_Systems/rnas/4yb0

>  <Rbt.Executable>
rbdock ($Id: //depot/dev/client3/rdock/2013.1/src/exe/rbdock.cxx#4 $)

>  <Rbt.Library>
libRbt.so (2013.1, Build901 2013/11/27)

>  <Rbt.Parameter_File>
/export/apps/rDock/src/rDock_2013.1_src/data/scripts/dock_solv.prm

>  <Rbt.Receptor>
prm/pocket_docking_6.prm

>  <SCORE>
-17.5725

>  <SCORE.INTER>
-17.861

>  <SCORE.INTER.CONST>
1

>  <SCORE.INTER.POLAR>
0

>  <SCORE.INTER.ROT>
2

>  <SCORE.INTER.SOLV>
15.6074

>  <SCORE.INTER.VDW>
-22.0431

>  <SCORE.INTER.norm>
-0.388282

>  <SCORE.INTRA>
0.288417

>  <SCORE.INTRA.DIHEDRAL>
0.115078

>  <SCORE.INTRA.DIHEDRAL.0>
4.74153

>  <SCORE.INTRA.POLAR>
0

>  <SCORE.INTRA.POLAR.0>
0

>  <SCORE.INTRA.REPUL>
0

>  <SCORE.INTRA.REPUL.0>
0

>  <SCORE.INTRA.SOLV>
2.05267

>  <SCORE.INTRA.SOLV.lig_0>
-60.4375

>  <SCORE.INTRA.VDW>
-0.795456

>  <SCORE.INTRA.VDW.0>
-1.83689

>  <SCORE.INTRA.norm>
0.00626993

>  <SCORE.RESTR>
0

>  <SCORE.RESTR.CAVITY>
0

>  <SCORE.RESTR.norm>
0

>  <SCORE.SYSTEM>
0

>  <SCORE.SYSTEM.CONST>
0

>  <SCORE.SYSTEM.DIHEDRAL>
0

>  <SCORE.SYSTEM.SOLV>
0

>  <SCORE.SYSTEM.norm>
0

>  <SCORE.heavy>
46

>  <SCORE.norm>
-0.382012

>  <RMSD>
5.531

$$$$
lig.pdb
 OpenBabel11021811523D
libRbt.so/2013.1/901 2013/11/27
 46 52  0  0  0  0  0  0  0  0999 V2000
  161.3634   46.4481  147.7917 P   0  0  2  0  0  0  0  0  0  0  0  0
  162.6672   46.7441  148.5003 O   0  0  0  0  0  0  0  0  0  0  0  0
  160.1032   46.5847  148.6067 O   0  0  0  0  0  0  0  0  0  0  0  0
  161.3786   44.9841  147.1273 O   0  0  0  0  0  0  0  0  0  0  0  0
  162.5695   44.2109  147.0571 C   0  0  0  0  0  0  0  0  0  0  0  0
  162.3968   43.0798  146.0568 C   0  0  1  0  0  0  0  0  0  0  0  0
  162.1835   41.8785  146.7843 O   0  0  0  0  0  0  0  0  0  0  0  0
  161.2157   43.2164  145.1043 C   0  0  1  0  0  0  0  0  0  0  0  0
  161.6789   43.6170  143.8231 O   0  0  0  0  0  0  0  0  0  0  0  0
  160.6883   41.8035  144.9923 C   0  0  1  0  0  0  0  0  0  0  0  0
  161.3402   41.1322  143.9123 O   0  0  0  0  0  0  0  0  0  0  0  0
  161.1131   41.1114  146.2548 C   0  0  2  0  0  0  0  0  0  0  0  0
  159.9908   41.1324  147.2227 N   0  0  0  0  0  0  0  0  0  0  0  0
  159.0931   42.1237  147.3600 C   0  0  0  0  0  0  0  0  0  0  0  0
  158.2095   41.8344  148.3453 N   0  0  0  0  0  0  0  0  0  0  0  0
  158.5365   40.6353  148.8591 C   0  0  0  0  0  0  0  0  0  0  0  0
  158.0125   39.7460  149.9225 C   0  0  0  0  0  0  0  0  0  0  0  0
  157.0109   40.0877  150.5962 O   0  0  0  0  0  0  0  0  0  0  0  0
  158.6455   38.5793  150.1338 N   0  0  0  0  0  0  0  0  0  0  0  0
  159.7211   38.2179  149.4089 C   0  0  0  0  0  0  0  0  0  0  0  0
  160.3148   37.0302  149.6620 N   0  0  0  0  0  0  0  0  0  0  0  0
  160.2500   38.9809  148.4256 N   0  0  0  0  0  0  0  0  0  0  0  0
  159.7117   40.1785  148.1109 C   0  0  0  0  0  0  0  0  0  0  0  0
  160.6930   44.1232  142.6365 P   0  0  2  0  0  0  0  0  0  0  0  0
  159.5598   43.1387  142.4799 O   0  0  0  0  0  0  0  0  0  0  0  0
  161.5912   44.4714  141.4644 O   0  0  0  0  0  0  0  0  0  0  0  0
  160.0733   45.4800  143.2567 O   0  0  0  0  0  0  0  0  0  0  0  0
  160.8268   46.6914  143.2236 C   0  0  0  0  0  0  0  0  0  0  0  0
  160.3313   47.7372  144.2273 C   0  0  1  0  0  0  0  0  0  0  0  0
  159.0992   48.2924  143.7619 O   0  0  0  0  0  0  0  0  0  0  0  0
  160.0737   47.2099  145.6372 C   0  0  1  0  0  0  0  0  0  0  0  0
  161.1967   47.3953  146.4977 O   0  0  0  0  0  0  0  0  0  0  0  0
  158.8867   48.0438  146.0817 C   0  0  1  0  0  0  0  0  0  0  0  0
  159.3201   49.2779  146.6604 O   0  0  0  0  0  0  0  0  0  0  0  0
  158.1321   48.3777  144.8119 C   0  0  2  0  0  0  0  0  0  0  0  0
  157.0808   47.3570  144.5767 N   0  0  0  0  0  0  0  0  0  0  0  0
  156.5580   47.0285  143.3787 C   0  0  0  0  0  0  0  0  0  0  0  0
  155.6202   46.0466  143.4863 N   0  0  0  0  0  0  0  0  0  0  0  0
  155.5345   45.7223  144.7862 C   0  0  0  0  0  0  0  0  0  0  0  0
  154.7358   44.7730  145.6026 C   0  0  0  0  0  0  0  0  0  0  0  0
  153.9005   43.9933  145.0962 O   0  0  0  0  0  0  0  0  0  0  0  0
  154.9560   44.7565  146.9183 N   0  0  0  0  0  0  0  0  0  0  0  0
  155.8458   45.5689  147.5090 C   0  0  0  0  0  0  0  0  0  0  0  0
  155.9764   45.4776  148.8409 N   0  0  0  0  0  0  0  0  0  0  0  0
  156.6040   46.4656  146.8356 N   0  0  0  0  0  0  0  0  0  0  0  0
  156.4962   46.5893  145.4961 C   0  0  0  0  0  0  0  0  0  0  0  0
  1  3  2  1  0  0  0
  1 32  1  0  0  0  0
  1  2  1  0  0  0  0
  1  4  1  0  0  0  0
  4  5  1  0  0  0  0
  6  5  1  1  0  0  0
  7  6  1  0  0  0  0
  8  6  1  0  0  0  0
  8 10  1  0  0  0  0
  8  9  1  6  0  0  0
 10 11  1  6  0  0  0
 12 13  1  1  0  0  0
 12  7  1  0  0  0  0
 12 10  1  0  0  0  0
 14 13  1  0  0  0  0
 15 16  1  0  0  0  0
 15 14  2  0  0  0  0
 16 23  2  0  0  0  0
 17 16  1  0  0  0  0
 17 19  1  0  0  0  0
 18 17  2  0  0  0  0
 19 20  2  0  0  0  0
 20 22  1  0  0  0  0
 20 21  1  0  0  0  0
 23 13  1  0  0  0  0
 23 22  1  0  0  0  0
 24 25  2  6  0  0  0
 24  9  1  0  0  0  0
 24 26  1  0  0  0  0
 27 28  1  0  0  0  0
 27 24  1  0  0  0  0
 29 30  1  6  0  0  0
 29 28  1  0  0  0  0
 31 32  1  1  0  0  0
 31 29  1  0  0  0  0
 33 34  1  6  0  0  0
 33 35  1  0  0  0  0
 33 31  1  0  0  0  0
 35 36  1  6  0  0  0
 35 30  1  0  0  0  0
 36 37  1  0  0  0  0
 38 37  2  0  0  0  0
 39 38  1  0  0  0  0
 40 41  2  0  0  0  0
 40 39  1  0  0  0  0
 42 40  1  0  0  0  0
 43 42  2  0  0  0  0
 43 45  1  0  0  0  0
 44 43  1  0  0  0  0
 45 46  1  0  0  0  0
 46 39  2  0  0  0  0
 46 36  1  0  0  0  0
M  END
>  <CHROM.1>
81.07591306,-39.61117027,159.32259237,44.18300937,146.15250666,-1.66934425
-0.36731670,2.60548885

>  <Name>
lig.pdb

>  <RI>
0

>  <Rbt.Current_Directory>
/home/itssahil/PROJECTS/Mol_Feturizer/New_Systems/rnas/4yb0

>  <Rbt.Executable>
rbdock ($Id: //depot/dev/client3/rdock/2013.1/src/exe/rbdock.cxx#4 $)

>  <Rbt.Library>
libRbt.so (2013.1, Build901 2013/11/27)

>  <Rbt.Parameter_File>
/export/apps/rDock/src/rDock_2013.1_src/data/scripts/dock_solv.prm

>  <Rbt.Receptor>
prm/pocket_docking_7.prm

>  <SCORE>
-22.188

>  <SCORE.INTER>
-22.6809

>  <SCORE.INTER.CONST>
1

>  <SCORE.INTER.POLAR>
0

>  <SCORE.INTER.ROT>
2

>  <SCORE.INTER.SOLV>
17.0055

>  <SCORE.INTER.VDW>
-25.7225

>  <SCORE.INTER.norm>
-0.493064

>  <SCORE.INTRA>
0.492971

>  <SCORE.INTRA.DIHEDRAL>
0.0478567

>  <SCORE.INTRA.DIHEDRAL.0>
4.74153

>  <SCORE.INTRA.POLAR>
0

>  <SCORE.INTRA.POLAR.0>
0

>  <SCORE.INTRA.REPUL>
0

>  <SCORE.INTRA.REPUL.0>
0

>  <SCORE.INTRA.SOLV>
0.00253934

>  <SCORE.INTRA.SOLV.lig_0>
-60.4375

>  <SCORE.INTRA.VDW>
0.467773

>  <SCORE.INTRA.VDW.0>
-1.83689

>  <SCORE.INTRA.norm>
0.0107168

>  <SCORE.RESTR>
0

>  <SCORE.RESTR.CAVITY>
0

>  <SCORE.RESTR.norm>
0

>  <SCORE.SYSTEM>
0

>  <SCORE.SYSTEM.CONST>
0

>  <SCORE.SYSTEM.DIHEDRAL>
0

>  <SCORE.SYSTEM.SOLV>
0

>  <SCORE.SYSTEM.norm>
0

>  <SCORE.heavy>
46

>  <SCORE.norm>
-0.482347

>  <RMSD>
5.535

$$$$
lig.pdb
 OpenBabel11021811523D
libRbt.so/2013.1/901 2013/11/27
 46 52  0  0  0  0  0  0  0  0999 V2000
  161.3632   46.4450  147.7996 P   0  0  2  0  0  0  0  0  0  0  0  0
  162.6660   46.7432  148.5092 O   0  0  0  0  0  0  0  0  0  0  0  0
  160.1020   46.5809  148.6132 O   0  0  0  0  0  0  0  0  0  0  0  0
  161.3807   44.9803  147.1367 O   0  0  0  0  0  0  0  0  0  0  0  0
  162.5726   44.2084  147.0684 C   0  0  0  0  0  0  0  0  0  0  0  0
  162.4023   43.0761  146.0692 C   0  0  1  0  0  0  0  0  0  0  0  0
  162.1897   41.8753  146.7977 O   0  0  0  0  0  0  0  0  0  0  0  0
  161.2219   43.2103  145.1154 C   0  0  1  0  0  0  0  0  0  0  0  0
  161.6858   43.6101  143.8342 O   0  0  0  0  0  0  0  0  0  0  0  0
  160.6963   41.7967  145.0044 C   0  0  1  0  0  0  0  0  0  0  0  0
  161.3500   41.1250  143.9257 O   0  0  0  0  0  0  0  0  0  0  0  0
  161.1206   41.1063  146.2680 C   0  0  2  0  0  0  0  0  0  0  0  0
  159.9974   41.1270  147.2348 N   0  0  0  0  0  0  0  0  0  0  0  0
  159.1045   42.1220  147.3772 C   0  0  0  0  0  0  0  0  0  0  0  0
  158.2184   41.8310  148.3597 N   0  0  0  0  0  0  0  0  0  0  0  0
  158.5388   40.6271  148.8665 C   0  0  0  0  0  0  0  0  0  0  0  0
  158.0092   39.7340  149.9238 C   0  0  0  0  0  0  0  0  0  0  0  0
  157.0086   40.0766  150.5986 O   0  0  0  0  0  0  0  0  0  0  0  0
  158.6361   38.5629  150.1287 N   0  0  0  0  0  0  0  0  0  0  0  0
  159.7107   38.2006  149.4028 C   0  0  0  0  0  0  0  0  0  0  0  0
  160.2983   37.0084  149.6493 N   0  0  0  0  0  0  0  0  0  0  0  0
  160.2446   38.9670  148.4248 N   0  0  0  0  0  0  0  0  0  0  0  0
  159.7126   40.1691  148.1168 C   0  0  0  0  0  0  0  0  0  0  0  0
  160.7006   44.1140  142.6462 P   0  0  2  0  0  0  0  0  0  0  0  0
  159.5686   43.1279  142.4894 O   0  0  0  0  0  0  0  0  0  0  0  0
  161.5995   44.4620  141.4745 O   0  0  0  0  0  0  0  0  0  0  0  0
  160.0786   45.4706  143.2643 O   0  0  0  0  0  0  0  0  0  0  0  0
  160.8307   46.6829  143.2308 C   0  0  0  0  0  0  0  0  0  0  0  0
  160.3330   47.7291  144.2329 C   0  0  1  0  0  0  0  0  0  0  0  0
  159.1007   48.2824  143.7657 O   0  0  0  0  0  0  0  0  0  0  0  0
  160.0747   47.2029  145.6430 C   0  0  1  0  0  0  0  0  0  0  0  0
  161.1966   47.3906  146.5045 O   0  0  0  0  0  0  0  0  0  0  0  0
  158.8862   48.0359  146.0856 C   0  0  1  0  0  0  0  0  0  0  0  0
  159.3176   49.2712  146.6634 O   0  0  0  0  0  0  0  0  0  0  0  0
  158.1325   48.3676  144.8147 C   0  0  2  0  0  0  0  0  0  0  0  0
  157.0826   47.3455  144.5796 N   0  0  0  0  0  0  0  0  0  0  0  0
  156.5739   47.0027  143.3795 C   0  0  0  0  0  0  0  0  0  0  0  0
  155.6334   46.0234  143.4879 N   0  0  0  0  0  0  0  0  0  0  0  0
  155.5315   45.7155  144.7907 C   0  0  0  0  0  0  0  0  0  0  0  0
  154.7215   44.7777  145.6092 C   0  0  0  0  0  0  0  0  0  0  0  0
  153.8913   43.9927  145.1025 O   0  0  0  0  0  0  0  0  0  0  0  0
  154.9256   44.7774  146.9275 N   0  0  0  0  0  0  0  0  0  0  0  0
  155.8094   45.5960  147.5188 C   0  0  0  0  0  0  0  0  0  0  0  0
  155.9237   45.5213  148.8532 N   0  0  0  0  0  0  0  0  0  0  0  0
  156.5770   46.4831  146.8435 N   0  0  0  0  0  0  0  0  0  0  0  0
  156.4858   46.5902  145.5013 C   0  0  0  0  0  0  0  0  0  0  0  0
  1  3  2  1  0  0  0
  1 32  1  0  0  0  0
  1  2  1  0  0  0  0
  1  4  1  0  0  0  0
  4  5  1  0  0  0  0
  6  5  1  1  0  0  0
  7  6  1  0  0  0  0
  8  6  1  0  0  0  0
  8 10  1  0  0  0  0
  8  9  1  6  0  0  0
 10 11  1  6  0  0  0
 12 13  1  1  0  0  0
 12  7  1  0  0  0  0
 12 10  1  0  0  0  0
 14 13  1  0  0  0  0
 15 16  1  0  0  0  0
 15 14  2  0  0  0  0
 16 23  2  0  0  0  0
 17 16  1  0  0  0  0
 17 19  1  0  0  0  0
 18 17  2  0  0  0  0
 19 20  2  0  0  0  0
 20 22  1  0  0  0  0
 20 21  1  0  0  0  0
 23 13  1  0  0  0  0
 23 22  1  0  0  0  0
 24 25  2  6  0  0  0
 24  9  1  0  0  0  0
 24 26  1  0  0  0  0
 27 28  1  0  0  0  0
 27 24  1  0  0  0  0
 29 30  1  6  0  0  0
 29 28  1  0  0  0  0
 31 32  1  1  0  0  0
 31 29  1  0  0  0  0
 33 34  1  6  0  0  0
 33 35  1  0  0  0  0
 33 31  1  0  0  0  0
 35 36  1  6  0  0  0
 35 30  1  0  0  0  0
 36 37  1  0  0  0  0
 38 37  2  0  0  0  0
 39 38  1  0  0  0  0
 40 41  2  0  0  0  0
 40 39  1  0  0  0  0
 42 40  1  0  0  0  0
 43 42  2  0  0  0  0
 43 45  1  0  0  0  0
 44 43  1  0  0  0  0
 45 46  1  0  0  0  0
 46 39  2  0  0  0  0
 46 36  1  0  0  0  0
M  END
>  <CHROM.1>
80.53463717,-38.67774156,159.32133031,44.17791738,146.15941602,-1.67068346
-0.36771522,2.60724034

>  <Name>
lig.pdb

>  <RI>
0

>  <Rbt.Current_Directory>
/home/itssahil/PROJECTS/Mol_Feturizer/New_Systems/rnas/4yb0

>  <Rbt.Executable>
rbdock ($Id: //depot/dev/client3/rdock/2013.1/src/exe/rbdock.cxx#4 $)

>  <Rbt.Library>
libRbt.so (2013.1, Build901 2013/11/27)

>  <Rbt.Parameter_File>
/export/apps/rDock/src/rDock_2013.1_src/data/scripts/dock_solv.prm

>  <Rbt.Receptor>
prm/pocket_docking_8.prm

>  <SCORE>
-22.0951

>  <SCORE.INTER>
-22.5667

>  <SCORE.INTER.CONST>
1

>  <SCORE.INTER.POLAR>
0

>  <SCORE.INTER.ROT>
2

>  <SCORE.INTER.SOLV>
17.1704

>  <SCORE.INTER.VDW>
-25.7013

>  <SCORE.INTER.norm>
-0.490581

>  <SCORE.INTRA>
0.471638

>  <SCORE.INTRA.DIHEDRAL>
0.0458584

>  <SCORE.INTRA.DIHEDRAL.0>
4.74153

>  <SCORE.INTRA.POLAR>
0

>  <SCORE.INTRA.POLAR.0>
0

>  <SCORE.INTRA.REPUL>
0.00349238

>  <SCORE.INTRA.REPUL.0>
0

>  <SCORE.INTRA.SOLV>
-0.00440267

>  <SCORE.INTRA.SOLV.lig_0>
-60.4375

>  <SCORE.INTRA.VDW>
0.433448

>  <SCORE.INTRA.VDW.0>
-1.83689

>  <SCORE.INTRA.norm>
0.010253

>  <SCORE.RESTR>
0

>  <SCORE.RESTR.CAVITY>
0

>  <SCORE.RESTR.norm>
0

>  <SCORE.SYSTEM>
0

>  <SCORE.SYSTEM.CONST>
0

>  <SCORE.SYSTEM.DIHEDRAL>
0

>  <SCORE.SYSTEM.SOLV>
0

>  <SCORE.SYSTEM.norm>
0

>  <SCORE.heavy>
46

>  <SCORE.norm>
-0.480328

>  <RMSD>
5.535

$$$$
lig.pdb
 OpenBabel11021811523D
libRbt.so/2013.1/901 2013/11/27
 46 52  0  0  0  0  0  0  0  0999 V2000
  161.8328   47.9403  147.0515 P   0  0  2  0  0  0  0  0  0  0  0  0
  162.0272   49.2715  147.7442 O   0  0  0  0  0  0  0  0  0  0  0  0
  162.7769   47.6205  145.9212 O   0  0  0  0  0  0  0  0  0  0  0  0
  160.3268   47.7761  146.5130 O   0  0  0  0  0  0  0  0  0  0  0  0
  159.3041   48.6968  146.8702 C   0  0  0  0  0  0  0  0  0  0  0  0
  157.9393   48.1024  146.5639 C   0  0  1  0  0  0  0  0  0  0  0  0
  157.4552   48.7046  145.3719 O   0  0  0  0  0  0  0  0  0  0  0  0
  157.9142   46.5985  146.3219 C   0  0  1  0  0  0  0  0  0  0  0  0
  157.3961   45.9386  147.4676 O   0  0  0  0  0  0  0  0  0  0  0  0
  156.9163   46.4394  145.1968 C   0  0  1  0  0  0  0  0  0  0  0  0
  155.6060   46.2629  145.7391 O   0  0  0  0  0  0  0  0  0  0  0  0
  156.9131   47.7526  144.4695 C   0  0  2  0  0  0  0  0  0  0  0  0
  157.8043   47.6574  143.2890 N   0  0  0  0  0  0  0  0  0  0  0  0
  158.6652   46.6563  143.0360 C   0  0  0  0  0  0  0  0  0  0  0  0
  159.3379   46.8853  141.8827 N   0  0  0  0  0  0  0  0  0  0  0  0
  158.9093   48.0549  141.3757 C   0  0  0  0  0  0  0  0  0  0  0  0
  159.2068   48.8779  140.1798 C   0  0  0  0  0  0  0  0  0  0  0  0
  160.0670   48.4987  139.3490 O   0  0  0  0  0  0  0  0  0  0  0  0
  158.5306   50.0292  140.0258 N   0  0  0  0  0  0  0  0  0  0  0  0
  157.6094   50.4325  140.9211 C   0  0  0  0  0  0  0  0  0  0  0  0
  156.9564   51.5975  140.7123 N   0  0  0  0  0  0  0  0  0  0  0  0
  157.2902   49.7308  142.0322 N   0  0  0  0  0  0  0  0  0  0  0  0
  157.8958   48.5563  142.3091 C   0  0  0  0  0  0  0  0  0  0  0  0
  157.4732   44.3311  147.6820 P   0  0  2  0  0  0  0  0  0  0  0  0
  156.9800   43.6404  146.4339 O   0  0  0  0  0  0  0  0  0  0  0  0
  156.8334   44.0562  149.0300 O   0  0  0  0  0  0  0  0  0  0  0  0
  159.0643   44.0713  147.7824 O   0  0  0  0  0  0  0  0  0  0  0  0
  159.7550   44.3238  149.0053 C   0  0  0  0  0  0  0  0  0  0  0  0
  161.2679   44.4795  148.8223 C   0  0  1  0  0  0  0  0  0  0  0  0
  161.8469   43.1988  148.5631 O   0  0  0  0  0  0  0  0  0  0  0  0
  161.6900   45.3956  147.6757 C   0  0  1  0  0  0  0  0  0  0  0  0
  161.9366   46.7313  148.1129 O   0  0  0  0  0  0  0  0  0  0  0  0
  162.9589   44.7279  147.1796 C   0  0  1  0  0  0  0  0  0  0  0  0
  164.0961   45.1850  147.9169 O   0  0  0  0  0  0  0  0  0  0  0  0
  162.7829   43.2547  147.4833 C   0  0  2  0  0  0  0  0  0  0  0  0
  162.1933   42.5723  146.3047 N   0  0  0  0  0  0  0  0  0  0  0  0
  161.5180   41.4062  146.3278 C   0  0  0  0  0  0  0  0  0  0  0  0
  161.0890   41.0435  145.0870 N   0  0  0  0  0  0  0  0  0  0  0  0
  161.4889   42.0007  144.2349 C   0  0  0  0  0  0  0  0  0  0  0  0
  161.3855   42.2448  142.7736 C   0  0  0  0  0  0  0  0  0  0  0  0
  160.7866   41.4621  142.0050 O   0  0  0  0  0  0  0  0  0  0  0  0
  161.9401   43.3598  142.2952 N   0  0  0  0  0  0  0  0  0  0  0  0
  162.5883   44.2347  143.0796 C   0  0  0  0  0  0  0  0  0  0  0  0
  163.1202   45.3161  142.4906 N   0  0  0  0  0  0  0  0  0  0  0  0
  162.7325   44.0784  144.4164 N   0  0  0  0  0  0  0  0  0  0  0  0
  162.2155   43.0006  145.0428 C   0  0  0  0  0  0  0  0  0  0  0  0
  1  3  2  6  0  0  0
  1 32  1  0  0  0  0
  1  2  1  0  0  0  0
  1  4  1  0  0  0  0
  4  5  1  0  0  0  0
  6  5  1  6  0  0  0
  7  6  1  0  0  0  0
  8  6  1  0  0  0  0
  8 10  1  0  0  0  0
  8  9  1  1  0  0  0
 10 11  1  1  0  0  0
 12 13  1  6  0  0  0
 12  7  1  0  0  0  0
 12 10  1  0  0  0  0
 14 13  1  0  0  0  0
 15 16  1  0  0  0  0
 15 14  2  0  0  0  0
 16 23  2  0  0  0  0
 17 16  1  0  0  0  0
 17 19  1  0  0  0  0
 18 17  2  0  0  0  0
 19 20  2  0  0  0  0
 20 22  1  0  0  0  0
 20 21  1  0  0  0  0
 23 13  1  0  0  0  0
 23 22  1  0  0  0  0
 24 25  2  6  0  0  0
 24  9  1  0  0  0  0
 24 26  1  0  0  0  0
 27 28  1  0  0  0  0
 27 24  1  0  0  0  0
 29 30  1  6  0  0  0
 29 28  1  0  0  0  0
 31 32  1  1  0  0  0
 31 29  1  0  0  0  0
 33 34  1  1  0  0  0
 33 35  1  0  0  0  0
 33 31  1  0  0  0  0
 35 36  1  6  0  0  0
 35 30  1  0  0  0  0
 36 37  1  0  0  0  0
 38 37  2  0  0  0  0
 39 38  1  0  0  0  0
 40 41  2  0  0  0  0
 40 39  1  0  0  0  0
 42 40  1  0  0  0  0
 43 42  2  0  0  0  0
 43 45  1  0  0  0  0
 44 43  1  0  0  0  0
 45 46  1  0  0  0  0
 46 39  2  0  0  0  0
 46 36  1  0  0  0  0
M  END
>  <CHROM.1>
104.15094035,-43.01323363,159.89911072,45.93313026,145.21255580,0.96883909
-0.81124144,1.91027572

>  <Name>
lig.pdb

>  <RI>
0

>  <Rbt.Current_Directory>
/home/itssahil/PROJECTS/Mol_Feturizer/New_Systems/rnas/4yb0

>  <Rbt.Executable>
rbdock ($Id: //depot/dev/client3/rdock/2013.1/src/exe/rbdock.cxx#4 $)

>  <Rbt.Library>
libRbt.so (2013.1, Build901 2013/11/27)

>  <Rbt.Parameter_File>
/export/apps/rDock/src/rDock_2013.1_src/data/scripts/dock_solv.prm

>  <Rbt.Receptor>
prm/pocket_docking_8.prm

>  <SCORE>
-17.0247

>  <SCORE.INTER>
-18.0891

>  <SCORE.INTER.CONST>
1

>  <SCORE.INTER.POLAR>
0

>  <SCORE.INTER.ROT>
2

>  <SCORE.INTER.SOLV>
16.4843

>  <SCORE.INTER.VDW>
-22.4875

>  <SCORE.INTER.norm>
-0.393241

>  <SCORE.INTRA>
1.06435

>  <SCORE.INTRA.DIHEDRAL>
0.0459535

>  <SCORE.INTRA.DIHEDRAL.0>
4.74153

>  <SCORE.INTRA.POLAR>
0

>  <SCORE.INTRA.POLAR.0>
0

>  <SCORE.INTRA.REPUL>
0

>  <SCORE.INTRA.REPUL.0>
0

>  <SCORE.INTRA.SOLV>
0.153818

>  <SCORE.INTRA.SOLV.lig_0>
-60.4375

>  <SCORE.INTRA.VDW>
0.964459

>  <SCORE.INTRA.VDW.0>
-1.83689

>  <SCORE.INTRA.norm>
0.0231379

>  <SCORE.RESTR>
0

>  <SCORE.RESTR.CAVITY>
0

>  <SCORE.RESTR.norm>
0

>  <SCORE.SYSTEM>
0

>  <SCORE.SYSTEM.CONST>
0

>  <SCORE.SYSTEM.DIHEDRAL>
0

>  <SCORE.SYSTEM.SOLV>
0

>  <SCORE.SYSTEM.norm>
0

>  <SCORE.heavy>
46

>  <SCORE.norm>
-0.370103

>  <RMSD>
5.536

$$$$
lig.pdb
 OpenBabel11021811523D
libRbt.so/2013.1/901 2013/11/27
 46 52  0  0  0  0  0  0  0  0999 V2000
  161.3604   46.4576  147.7752 P   0  0  2  0  0  0  0  0  0  0  0  0
  162.6656   46.7629  148.4773 O   0  0  0  0  0  0  0  0  0  0  0  0
  160.1029   46.5904  148.5950 O   0  0  0  0  0  0  0  0  0  0  0  0
  161.3805   44.9914  147.1157 O   0  0  0  0  0  0  0  0  0  0  0  0
  162.5752   44.2243  147.0431 C   0  0  0  0  0  0  0  0  0  0  0  0
  162.4043   43.0889  146.0475 C   0  0  1  0  0  0  0  0  0  0  0  0
  162.2004   41.8889  146.7800 O   0  0  0  0  0  0  0  0  0  0  0  0
  161.2186   43.2159  145.0995 C   0  0  1  0  0  0  0  0  0  0  0  0
  161.6742   43.6145  143.8150 O   0  0  0  0  0  0  0  0  0  0  0  0
  160.6981   41.7999  144.9946 C   0  0  1  0  0  0  0  0  0  0  0  0
  161.3490   41.1283  143.9142 O   0  0  0  0  0  0  0  0  0  0  0  0
  161.1318   41.1144  146.2577 C   0  0  2  0  0  0  0  0  0  0  0  0
  160.0135   41.1328  147.2302 N   0  0  0  0  0  0  0  0  0  0  0  0
  159.1105   42.1193  147.3671 C   0  0  0  0  0  0  0  0  0  0  0  0
  158.2328   41.8289  148.3573 N   0  0  0  0  0  0  0  0  0  0  0  0
  158.5692   40.6340  148.8749 C   0  0  0  0  0  0  0  0  0  0  0  0
  158.0551   39.7462  149.9443 C   0  0  0  0  0  0  0  0  0  0  0  0
  157.0543   40.0848  150.6208 O   0  0  0  0  0  0  0  0  0  0  0  0
  158.6960   38.5843  150.1579 N   0  0  0  0  0  0  0  0  0  0  0  0
  159.7707   38.2262  149.4301 C   0  0  0  0  0  0  0  0  0  0  0  0
  160.3727   37.0432  149.6858 N   0  0  0  0  0  0  0  0  0  0  0  0
  160.2909   38.9882  148.4413 N   0  0  0  0  0  0  0  0  0  0  0  0
  159.7440   40.1811  148.1237 C   0  0  0  0  0  0  0  0  0  0  0  0
  160.6807   44.1114  142.6309 P   0  0  2  0  0  0  0  0  0  0  0  0
  159.5520   43.1204  142.4824 O   0  0  0  0  0  0  0  0  0  0  0  0
  161.5721   44.4603  141.4538 O   0  0  0  0  0  0  0  0  0  0  0  0
  160.0564   45.4670  143.2490 O   0  0  0  0  0  0  0  0  0  0  0  0
  160.8033   46.6823  143.2086 C   0  0  0  0  0  0  0  0  0  0  0  0
  160.3065   47.7289  144.2108 C   0  0  1  0  0  0  0  0  0  0  0  0
  159.0696   48.2760  143.7487 O   0  0  0  0  0  0  0  0  0  0  0  0
  160.0577   47.2051  145.6235 C   0  0  1  0  0  0  0  0  0  0  0  0
  161.1833   47.3994  146.4787 O   0  0  0  0  0  0  0  0  0  0  0  0
  158.8681   48.0343  146.0702 C   0  0  1  0  0  0  0  0  0  0  0  0
  159.2974   49.2727  146.6428 O   0  0  0  0  0  0  0  0  0  0  0  0
  158.1064   48.3598  144.8024 C   0  0  2  0  0  0  0  0  0  0  0  0
  157.0596   47.3328  144.5752 N   0  0  0  0  0  0  0  0  0  0  0  0
  156.5301   47.0008  143.3811 C   0  0  0  0  0  0  0  0  0  0  0  0
  155.5990   46.0133  143.4958 N   0  0  0  0  0  0  0  0  0  0  0  0
  155.5247   45.6890  144.7964 C   0  0  0  0  0  0  0  0  0  0  0  0
  154.7375   44.7352  145.6189 C   0  0  0  0  0  0  0  0  0  0  0  0
  153.9033   43.9504  145.1188 O   0  0  0  0  0  0  0  0  0  0  0  0
  154.9673   44.7206  146.9329 N   0  0  0  0  0  0  0  0  0  0  0  0
  155.8565   45.5385  147.5169 C   0  0  0  0  0  0  0  0  0  0  0  0
  155.9972   45.4485  148.8479 N   0  0  0  0  0  0  0  0  0  0  0  0
  156.6044   46.4394  146.8378 N   0  0  0  0  0  0  0  0  0  0  0  0
  156.4862   46.5620  145.4990 C   0  0  0  0  0  0  0  0  0  0  0  0
  1  3  2  1  0  0  0
  1 32  1  0  0  0  0
  1  2  1  0  0  0  0
  1  4  1  0  0  0  0
  4  5  1  0  0  0  0
  6  5  1  1  0  0  0
  7  6  1  0  0  0  0
  8  6  1  0  0  0  0
  8 10  1  0  0  0  0
  8  9  1  6  0  0  0
 10 11  1  6  0  0  0
 12 13  1  1  0  0  0
 12  7  1  0  0  0  0
 12 10  1  0  0  0  0
 14 13  1  0  0  0  0
 15 16  1  0  0  0  0
 15 14  2  0  0  0  0
 16 23  2  0  0  0  0
 17 16  1  0  0  0  0
 17 19  1  0  0  0  0
 18 17  2  0  0  0  0
 19 20  2  0  0  0  0
 20 22  1  0  0  0  0
 20 21  1  0  0  0  0
 23 13  1  0  0  0  0
 23 22  1  0  0  0  0
 24 25  2  6  0  0  0
 24  9  1  0  0  0  0
 24 26  1  0  0  0  0
 27 28  1  0  0  0  0
 27 24  1  0  0  0  0
 29 30  1  6  0  0  0
 29 28  1  0  0  0  0
 31 32  1  1  0  0  0
 31 29  1  0  0  0  0
 33 34  1  6  0  0  0
 33 35  1  0  0  0  0
 33 31  1  0  0  0  0
 35 36  1  6  0  0  0
 35 30  1  0  0  0  0
 36 37  1  0  0  0  0
 38 37  2  0  0  0  0
 39 38  1  0  0  0  0
 40 41  2  0  0  0  0
 40 39  1  0  0  0  0
 42 40  1  0  0  0  0
 43 42  2  0  0  0  0
 43 45  1  0  0  0  0
 44 43  1  0  0  0  0
 45 46  1  0  0  0  0
 46 39  2  0  0  0  0
 46 36  1  0  0  0  0
M  END
>  <CHROM.1>
81.14270114,-39.86079968,159.32590612,44.17537079,146.15245872,-1.67601897
-0.36762090,2.59910932

>  <Name>
lig.pdb

>  <RI>
0

>  <Rbt.Current_Directory>
/home/itssahil/PROJECTS/Mol_Feturizer/New_Systems/rnas/4yb0

>  <Rbt.Executable>
rbdock ($Id: //depot/dev/client3/rdock/2013.1/src/exe/rbdock.cxx#4 $)

>  <Rbt.Library>
libRbt.so (2013.1, Build901 2013/11/27)

>  <Rbt.Parameter_File>
/export/apps/rDock/src/rDock_2013.1_src/data/scripts/dock_solv.prm

>  <Rbt.Receptor>
prm/pocket_docking_7.prm

>  <SCORE>
-22.2032

>  <SCORE.INTER>
-22.6846

>  <SCORE.INTER.CONST>
1

>  <SCORE.INTER.POLAR>
0

>  <SCORE.INTER.ROT>
2

>  <SCORE.INTER.SOLV>
17.0384

>  <SCORE.INTER.VDW>
-25.7359

>  <SCORE.INTER.norm>
-0.493144

>  <SCORE.INTRA>
0.481453

>  <SCORE.INTRA.DIHEDRAL>
0.0483267

>  <SCORE.INTRA.DIHEDRAL.0>
4.74153

>  <SCORE.INTRA.POLAR>
0

>  <SCORE.INTRA.POLAR.0>
0

>  <SCORE.INTRA.REPUL>
0

>  <SCORE.INTRA.REPUL.0>
0

>  <SCORE.INTRA.SOLV>
0.00892683

>  <SCORE.INTRA.SOLV.lig_0>
-60.4375

>  <SCORE.INTRA.VDW>
0.452827

>  <SCORE.INTRA.VDW.0>
-1.83689

>  <SCORE.INTRA.norm>
0.0104664

>  <SCORE.RESTR>
0

>  <SCORE.RESTR.CAVITY>
0

>  <SCORE.RESTR.norm>
0

>  <SCORE.SYSTEM>
0

>  <SCORE.SYSTEM.CONST>
0

>  <SCORE.SYSTEM.DIHEDRAL>
0

>  <SCORE.SYSTEM.SOLV>
0

>  <SCORE.SYSTEM.norm>
0

>  <SCORE.heavy>
46

>  <SCORE.norm>
-0.482678

>  <RMSD>
5.544

$$$$
lig.pdb
 OpenBabel11021811523D
libRbt.so/2013.1/901 2013/11/27
 46 52  0  0  0  0  0  0  0  0999 V2000
  161.9315   47.9041  147.0497 P   0  0  2  0  0  0  0  0  0  0  0  0
  162.1450   49.2312  147.7446 O   0  0  0  0  0  0  0  0  0  0  0  0
  162.8829   47.5640  145.9316 O   0  0  0  0  0  0  0  0  0  0  0  0
  160.4293   47.7713  146.4921 O   0  0  0  0  0  0  0  0  0  0  0  0
  159.4217   48.7134  146.8361 C   0  0  0  0  0  0  0  0  0  0  0  0
  158.0488   48.1476  146.5126 C   0  0  1  0  0  0  0  0  0  0  0  0
  157.5926   48.7593  145.3144 O   0  0  0  0  0  0  0  0  0  0  0  0
  157.9952   46.6445  146.2705 C   0  0  1  0  0  0  0  0  0  0  0  0
  157.4488   45.9962  147.4097 O   0  0  0  0  0  0  0  0  0  0  0  0
  157.0085   46.5058  145.1329 C   0  0  1  0  0  0  0  0  0  0  0  0
  155.6881   46.3571  145.6585 O   0  0  0  0  0  0  0  0  0  0  0  0
  157.0421   47.8184  144.4054 C   0  0  2  0  0  0  0  0  0  0  0  0
  157.9461   47.7040  143.2363 N   0  0  0  0  0  0  0  0  0  0  0  0
  158.8528   46.7312  143.0394 C   0  0  0  0  0  0  0  0  0  0  0  0
  159.5239   46.9318  141.8798 N   0  0  0  0  0  0  0  0  0  0  0  0
  159.0474   48.0538  141.3116 C   0  0  0  0  0  0  0  0  0  0  0  0
  159.3174   48.8279  140.0771 C   0  0  0  0  0  0  0  0  0  0  0  0
  160.2003   48.4463  139.2716 O   0  0  0  0  0  0  0  0  0  0  0  0
  158.5916   49.9383  139.8609 N   0  0  0  0  0  0  0  0  0  0  0  0
  157.6462   50.3444  140.7294 C   0  0  0  0  0  0  0  0  0  0  0  0
  156.9435   51.4668  140.4579 N   0  0  0  0  0  0  0  0  0  0  0  0
  157.3499   49.6860  141.8729 N   0  0  0  0  0  0  0  0  0  0  0  0
  158.0051   48.5554  142.2126 C   0  0  0  0  0  0  0  0  0  0  0  0
  157.4893   44.3875  147.6254 P   0  0  2  0  0  0  0  0  0  0  0  0
  156.9977   43.7067  146.3713 O   0  0  0  0  0  0  0  0  0  0  0  0
  156.8269   44.1268  148.9652 O   0  0  0  0  0  0  0  0  0  0  0  0
  159.0733   44.0944  147.7461 O   0  0  0  0  0  0  0  0  0  0  0  0
  159.7535   44.3329  148.9777 C   0  0  0  0  0  0  0  0  0  0  0  0
  161.2715   44.4568  148.8139 C   0  0  1  0  0  0  0  0  0  0  0  0
  161.8268   43.1641  148.5624 O   0  0  0  0  0  0  0  0  0  0  0  0
  161.7273   45.3632  147.6725 C   0  0  1  0  0  0  0  0  0  0  0  0
  161.9964   46.6937  148.1126 O   0  0  0  0  0  0  0  0  0  0  0  0
  162.9881   44.6688  147.1927 C   0  0  1  0  0  0  0  0  0  0  0  0
  164.1252   45.1023  147.9444 O   0  0  0  0  0  0  0  0  0  0  0  0
  162.7774   43.1998  147.4945 C   0  0  2  0  0  0  0  0  0  0  0  0
  162.1887   42.5294  146.3087 N   0  0  0  0  0  0  0  0  0  0  0  0
  161.5118   41.3639  146.3198 C   0  0  0  0  0  0  0  0  0  0  0  0
  161.0842   41.0136  145.0750 N   0  0  0  0  0  0  0  0  0  0  0  0
  161.4866   41.9782  144.2325 C   0  0  0  0  0  0  0  0  0  0  0  0
  161.3856   42.2364  142.7734 C   0  0  0  0  0  0  0  0  0  0  0  0
  160.7868   41.4617  141.9966 O   0  0  0  0  0  0  0  0  0  0  0  0
  161.9423   43.3551  142.3064 N   0  0  0  0  0  0  0  0  0  0  0  0
  162.5906   44.2216  143.1000 C   0  0  0  0  0  0  0  0  0  0  0  0
  163.1247   45.3079  142.5221 N   0  0  0  0  0  0  0  0  0  0  0  0
  162.7325   44.0525  144.4355 N   0  0  0  0  0  0  0  0  0  0  0  0
  162.2133   42.9695  145.0509 C   0  0  0  0  0  0  0  0  0  0  0  0
  1  3  2  6  0  0  0
  1 32  1  0  0  0  0
  1  2  1  0  0  0  0
  1  4  1  0  0  0  0
  4  5  1  0  0  0  0
  6  5  1  6  0  0  0
  7  6  1  0  0  0  0
  8  6  1  0  0  0  0
  8 10  1  0  0  0  0
  8  9  1  1  0  0  0
 10 11  1  1  0  0  0
 12 13  1  6  0  0  0
 12  7  1  0  0  0  0
 12 10  1  0  0  0  0
 14 13  1  0  0  0  0
 15 16  1  0  0  0  0
 15 14  2  0  0  0  0
 16 23  2  0  0  0  0
 17 16  1  0  0  0  0
 17 19  1  0  0  0  0
 18 17  2  0  0  0  0
 19 20  2  0  0  0  0
 20 22  1  0  0  0  0
 20 21  1  0  0  0  0
 23 13  1  0  0  0  0
 23 22  1  0  0  0  0
 24 25  2  6  0  0  0
 24  9  1  0  0  0  0
 24 26  1  0  0  0  0
 27 28  1  0  0  0  0
 27 24  1  0  0  0  0
 29 30  1  6  0  0  0
 29 28  1  0  0  0  0
 31 32  1  1  0  0  0
 31 29  1  0  0  0  0
 33 34  1  1  0  0  0
 33 35  1  0  0  0  0
 33 31  1  0  0  0  0
 35 36  1  6  0  0  0
 35 30  1  0  0  0  0
 36 37  1  0  0  0  0
 38 37  2  0  0  0  0
 39 38  1  0  0  0  0
 40 41  2  0  0  0  0
 40 39  1  0  0  0  0
 42 40  1  0  0  0  0
 43 42  2  0  0  0  0
 43 45  1  0  0  0  0
 44 43  1  0  0  0  0
 45 46  1  0  0  0  0
 46 39  2  0  0  0  0
 46 36  1  0  0  0  0
M  END
>  <CHROM.1>
99.38720567,-44.42907072,159.95446702,45.92791703,145.17475276,0.97886815
-0.82289903,1.89241227

>  <Name>
lig.pdb

>  <RI>
0

>  <Rbt.Current_Directory>
/home/itssahil/PROJECTS/Mol_Feturizer/New_Systems/rnas/4yb0

>  <Rbt.Executable>
rbdock ($Id: //depot/dev/client3/rdock/2013.1/src/exe/rbdock.cxx#4 $)

>  <Rbt.Library>
libRbt.so (2013.1, Build901 2013/11/27)

>  <Rbt.Parameter_File>
/export/apps/rDock/src/rDock_2013.1_src/data/scripts/dock_solv.prm

>  <Rbt.Receptor>
prm/pocket_docking_8.prm

>  <SCORE>
-16.9933

>  <SCORE.INTER>
-17.9639

>  <SCORE.INTER.CONST>
1

>  <SCORE.INTER.POLAR>
0

>  <SCORE.INTER.ROT>
2

>  <SCORE.INTER.SOLV>
16.7977

>  <SCORE.INTER.VDW>
-22.5085

>  <SCORE.INTER.norm>
-0.39052

>  <SCORE.INTRA>
0.970618

>  <SCORE.INTRA.DIHEDRAL>
0.0557356

>  <SCORE.INTRA.DIHEDRAL.0>
4.74153

>  <SCORE.INTRA.POLAR>
0

>  <SCORE.INTRA.POLAR.0>
0

>  <SCORE.INTRA.REPUL>
0

>  <SCORE.INTRA.REPUL.0>
0

>  <SCORE.INTRA.SOLV>
0.207367

>  <SCORE.INTRA.SOLV.lig_0>
-60.4375

>  <SCORE.INTRA.VDW>
0.839067

>  <SCORE.INTRA.VDW.0>
-1.83689

>  <SCORE.INTRA.norm>
0.0211004

>  <SCORE.RESTR>
0

>  <SCORE.RESTR.CAVITY>
0

>  <SCORE.RESTR.norm>
0

>  <SCORE.SYSTEM>
0

>  <SCORE.SYSTEM.CONST>
0

>  <SCORE.SYSTEM.DIHEDRAL>
0

>  <SCORE.SYSTEM.SOLV>
0

>  <SCORE.SYSTEM.norm>
0

>  <SCORE.heavy>
46

>  <SCORE.norm>
-0.369419

>  <RMSD>
5.577

$$$$
lig.pdb
 OpenBabel11021811523D
libRbt.so/2013.1/901 2013/11/27
 46 52  0  0  0  0  0  0  0  0999 V2000
  161.0766   46.8416  147.8130 P   0  0  2  0  0  0  0  0  0  0  0  0
  162.3401   47.1981  148.5655 O   0  0  0  0  0  0  0  0  0  0  0  0
  159.7937   46.8432  148.6038 O   0  0  0  0  0  0  0  0  0  0  0  0
  161.2154   45.4176  147.0794 O   0  0  0  0  0  0  0  0  0  0  0  0
  162.4625   44.7397  147.0000 C   0  0  0  0  0  0  0  0  0  0  0  0
  162.3956   43.6501  145.9426 C   0  0  1  0  0  0  0  0  0  0  0  0
  162.2592   42.4015  146.6062 O   0  0  0  0  0  0  0  0  0  0  0  0
  161.2267   43.7456  144.9703 C   0  0  1  0  0  0  0  0  0  0  0  0
  161.6835   44.2430  143.7211 O   0  0  0  0  0  0  0  0  0  0  0  0
  160.8097   42.3047  144.7780 C   0  0  1  0  0  0  0  0  0  0  0  0
  161.5317   41.7385  143.6826 O   0  0  0  0  0  0  0  0  0  0  0  0
  161.2605   41.5841  146.0154 C   0  0  2  0  0  0  0  0  0  0  0  0
  160.1208   41.4733  146.9565 N   0  0  0  0  0  0  0  0  0  0  0  0
  158.8873   41.0386  146.6454 C   0  0  0  0  0  0  0  0  0  0  0  0
  158.0797   41.0763  147.7323 N   0  0  0  0  0  0  0  0  0  0  0  0
  158.7979   41.5435  148.7690 C   0  0  0  0  0  0  0  0  0  0  0  0
  158.5513   41.8278  150.2023 C   0  0  0  0  0  0  0  0  0  0  0  0
  157.4172   41.6289  150.7005 O   0  0  0  0  0  0  0  0  0  0  0  0
  159.5744   42.3021  150.9335 N   0  0  0  0  0  0  0  0  0  0  0  0
  160.7893   42.5153  150.3936 C   0  0  0  0  0  0  0  0  0  0  0  0
  161.7828   42.9891  151.1783 N   0  0  0  0  0  0  0  0  0  0  0  0
  161.0818   42.2777  149.0948 N   0  0  0  0  0  0  0  0  0  0  0  0
  160.1442   41.8008  148.2483 C   0  0  0  0  0  0  0  0  0  0  0  0
  160.6860   44.7328  142.5375 P   0  0  2  0  0  0  0  0  0  0  0  0
  159.6336   43.6757  142.3070 O   0  0  0  0  0  0  0  0  0  0  0  0
  161.5784   45.2049  141.4049 O   0  0  0  0  0  0  0  0  0  0  0  0
  159.9534   46.0071  143.2076 O   0  0  0  0  0  0  0  0  0  0  0  0
  160.6138   47.2714  143.2506 C   0  0  0  0  0  0  0  0  0  0  0  0
  160.0209   48.2261  144.2916 C   0  0  1  0  0  0  0  0  0  0  0  0
  158.7599   48.7105  143.8246 O   0  0  0  0  0  0  0  0  0  0  0  0
  159.7760   47.6115  145.6680 C   0  0  1  0  0  0  0  0  0  0  0  0
  160.8645   47.8369  146.5626 O   0  0  0  0  0  0  0  0  0  0  0  0
  158.5208   48.3315  146.1242 C   0  0  1  0  0  0  0  0  0  0  0  0
  158.8483   49.5642  146.7716 O   0  0  0  0  0  0  0  0  0  0  0  0
  157.7685   48.6712  144.8545 C   0  0  2  0  0  0  0  0  0  0  0  0
  156.8022   47.5881  144.5458 N   0  0  0  0  0  0  0  0  0  0  0  0
  156.3426   47.2706  143.3192 C   0  0  0  0  0  0  0  0  0  0  0  0
  155.4758   46.2207  143.3582 N   0  0  0  0  0  0  0  0  0  0  0  0
  155.3730   45.8400  144.6415 C   0  0  0  0  0  0  0  0  0  0  0  0
  154.6202   44.8046  145.3943 C   0  0  0  0  0  0  0  0  0  0  0  0
  153.8602   43.9878  144.8311 O   0  0  0  0  0  0  0  0  0  0  0  0
  154.7994   44.7520  146.7152 N   0  0  0  0  0  0  0  0  0  0  0  0
  155.6088   45.6020  147.3658 C   0  0  0  0  0  0  0  0  0  0  0  0
  155.7037   45.4679  148.6971 N   0  0  0  0  0  0  0  0  0  0  0  0
  156.3205   46.5764  146.7524 N   0  0  0  0  0  0  0  0  0  0  0  0
  156.2463   46.7449  145.4155 C   0  0  0  0  0  0  0  0  0  0  0  0
  1  3  2  1  0  0  0
  1 32  1  0  0  0  0
  1  2  1  0  0  0  0
  1  4  1  0  0  0  0
  4  5  1  0  0  0  0
  6  5  1  1  0  0  0
  7  6  1  0  0  0  0
  8  6  1  0  0  0  0
  8 10  1  0  0  0  0
  8  9  1  6  0  0  0
 10 11  1  6  0  0  0
 12 13  1  1  0  0  0
 12  7  1  0  0  0  0
 12 10  1  0  0  0  0
 14 13  1  0  0  0  0
 15 16  1  0  0  0  0
 15 14  2  0  0  0  0
 16 23  2  0  0  0  0
 17 16  1  0  0  0  0
 17 19  1  0  0  0  0
 18 17  2  0  0  0  0
 19 20  2  0  0  0  0
 20 22  1  0  0  0  0
 20 21  1  0  0  0  0
 23 13  1  0  0  0  0
 23 22  1  0  0  0  0
 24 25  2  6  0  0  0
 24  9  1  0  0  0  0
 24 26  1  0  0  0  0
 27 28  1  0  0  0  0
 27 24  1  0  0  0  0
 29 30  1  6  0  0  0
 29 28  1  0  0  0  0
 31 32  1  1  0  0  0
 31 29  1  0  0  0  0
 33 34  1  6  0  0  0
 33 35  1  0  0  0  0
 33 31  1  0  0  0  0
 35 36  1  6  0  0  0
 35 30  1  0  0  0  0
 36 37  1  0  0  0  0
 38 37  2  0  0  0  0
 39 38  1  0  0  0  0
 40 41  2  0  0  0  0
 40 39  1  0  0  0  0
 42 40  1  0  0  0  0
 43 42  2  0  0  0  0
 43 45  1  0  0  0  0
 44 43  1  0  0  0  0
 45 46  1  0  0  0  0
 46 39  2  0  0  0  0
 46 36  1  0  0  0  0
M  END
>  <CHROM.1>
164.44831141,-38.70556024,159.31243451,44.90901210,146.15132510,-1.23077765
0.36014858,-0.89791475

>  <Name>
lig.pdb

>  <RI>
0

>  <Rbt.Current_Directory>
/home/itssahil/PROJECTS/Mol_Feturizer/New_Systems/rnas/4yb0

>  <Rbt.Executable>
rbdock ($Id: //depot/dev/client3/rdock/2013.1/src/exe/rbdock.cxx#4 $)

>  <Rbt.Library>
libRbt.so (2013.1, Build901 2013/11/27)

>  <Rbt.Parameter_File>
/export/apps/rDock/src/rDock_2013.1_src/data/scripts/dock_solv.prm

>  <Rbt.Receptor>
prm/pocket_docking_5.prm

>  <SCORE>
-19.084

>  <SCORE.INTER>
-19.2625

>  <SCORE.INTER.CONST>
1

>  <SCORE.INTER.POLAR>
0

>  <SCORE.INTER.ROT>
2

>  <SCORE.INTER.SOLV>
14.1088

>  <SCORE.INTER.VDW>
-22.4779

>  <SCORE.INTER.norm>
-0.418749

>  <SCORE.INTRA>
0.173709

>  <SCORE.INTRA.DIHEDRAL>
-0.0274894

>  <SCORE.INTRA.DIHEDRAL.0>
4.74153

>  <SCORE.INTRA.POLAR>
0

>  <SCORE.INTRA.POLAR.0>
0

>  <SCORE.INTRA.REPUL>
0.00336561

>  <SCORE.INTRA.REPUL.0>
0

>  <SCORE.INTRA.SOLV>
0.433959

>  <SCORE.INTRA.SOLV.lig_0>
-60.4375

>  <SCORE.INTRA.VDW>
-0.0463532

>  <SCORE.INTRA.VDW.0>
-1.83689

>  <SCORE.INTRA.norm>
0.00377629

>  <SCORE.RESTR>
0.00479701

>  <SCORE.RESTR.CAVITY>
0.00479701

>  <SCORE.RESTR.norm>
0.000104283

>  <SCORE.SYSTEM>
0

>  <SCORE.SYSTEM.CONST>
0

>  <SCORE.SYSTEM.DIHEDRAL>
0

>  <SCORE.SYSTEM.SOLV>
0

>  <SCORE.SYSTEM.norm>
0

>  <SCORE.heavy>
46

>  <SCORE.norm>
-0.414869

>  <RMSD>
5.592

$$$$
lig.pdb
 OpenBabel11021811523D
libRbt.so/2013.1/901 2013/11/27
 46 52  0  0  0  0  0  0  0  0999 V2000
  160.0322   43.9660  147.7657 P   0  0  2  0  0  0  0  0  0  0  0  0
  161.1340   43.3438  148.5953 O   0  0  0  0  0  0  0  0  0  0  0  0
  159.7418   43.3236  146.4338 O   0  0  0  0  0  0  0  0  0  0  0  0
  160.2972   45.5332  147.5231 O   0  0  0  0  0  0  0  0  0  0  0  0
  161.3279   46.2291  148.2118 C   0  0  0  0  0  0  0  0  0  0  0  0
  161.1063   47.7286  148.1015 C   0  0  1  0  0  0  0  0  0  0  0  0
  162.0142   48.2371  147.1346 O   0  0  0  0  0  0  0  0  0  0  0  0
  159.7167   48.1583  147.6484 C   0  0  1  0  0  0  0  0  0  0  0  0
  158.9749   48.6298  148.7637 O   0  0  0  0  0  0  0  0  0  0  0  0
  159.9911   49.3330  146.7364 C   0  0  1  0  0  0  0  0  0  0  0  0
  159.9960   50.5415  147.4989 O   0  0  0  0  0  0  0  0  0  0  0  0
  161.3895   49.1332  146.2283 C   0  0  2  0  0  0  0  0  0  0  0  0
  161.3353   48.4947  144.8919 N   0  0  0  0  0  0  0  0  0  0  0  0
  160.7718   49.0250  143.7925 C   0  0  0  0  0  0  0  0  0  0  0  0
  160.8820   48.1759  142.7428 N   0  0  0  0  0  0  0  0  0  0  0  0
  161.5273   47.0738  143.1644 C   0  0  0  0  0  0  0  0  0  0  0  0
  161.9712   45.7950  142.5613 C   0  0  0  0  0  0  0  0  0  0  0  0
  161.7412   45.5525  141.3521 O   0  0  0  0  0  0  0  0  0  0  0  0
  162.6171   44.9194  143.3503 N   0  0  0  0  0  0  0  0  0  0  0  0
  162.8602   45.1839  144.6480 C   0  0  0  0  0  0  0  0  0  0  0  0
  163.5185   44.2679  145.3929 N   0  0  0  0  0  0  0  0  0  0  0  0
  162.4830   46.3290  145.2604 N   0  0  0  0  0  0  0  0  0  0  0  0
  161.8245   47.2938  144.5832 C   0  0  0  0  0  0  0  0  0  0  0  0
  157.3770   48.9134  148.7166 P   0  0  2  0  0  0  0  0  0  0  0  0
  157.0585   49.7549  147.5047 O   0  0  0  0  0  0  0  0  0  0  0  0
  156.9912   49.3747  150.1095 O   0  0  0  0  0  0  0  0  0  0  0  0
  156.7714   47.4389  148.4548 O   0  0  0  0  0  0  0  0  0  0  0  0
  156.6329   46.5196  149.5374 C   0  0  0  0  0  0  0  0  0  0  0  0
  156.4964   45.0643  149.0787 C   0  0  1  0  0  0  0  0  0  0  0  0
  155.1959   44.8646  148.5207 O   0  0  0  0  0  0  0  0  0  0  0  0
  157.5043   44.6224  148.0200 C   0  0  1  0  0  0  0  0  0  0  0  0
  158.6483   43.9903  148.5925 O   0  0  0  0  0  0  0  0  0  0  0  0
  156.6903   43.6517  147.1849 C   0  0  1  0  0  0  0  0  0  0  0  0
  156.7462   42.3338  147.7379 O   0  0  0  0  0  0  0  0  0  0  0  0
  155.2577   44.1302  147.2951 C   0  0  2  0  0  0  0  0  0  0  0  0
  154.9543   45.0505  146.1712 N   0  0  0  0  0  0  0  0  0  0  0  0
  155.6704   46.1411  145.8329 C   0  0  0  0  0  0  0  0  0  0  0  0
  155.1471   46.7750  144.7468 N   0  0  0  0  0  0  0  0  0  0  0  0
  154.0668   46.0762  144.3636 C   0  0  0  0  0  0  0  0  0  0  0  0
  153.0391   46.1923  143.2976 C   0  0  0  0  0  0  0  0  0  0  0  0
  153.0565   47.1090  142.4483 O   0  0  0  0  0  0  0  0  0  0  0  0
  152.0891   45.2567  143.2543 N   0  0  0  0  0  0  0  0  0  0  0  0
  152.0305   44.2494  144.1389 C   0  0  0  0  0  0  0  0  0  0  0  0
  151.0237   43.3723  144.0105 N   0  0  0  0  0  0  0  0  0  0  0  0
  152.9232   44.0806  145.1423 N   0  0  0  0  0  0  0  0  0  0  0  0
  153.9460   44.9457  145.3060 C   0  0  0  0  0  0  0  0  0  0  0  0
  1  3  2  6  0  0  0
  1 32  1  0  0  0  0
  1  2  1  0  0  0  0
  1  4  1  0  0  0  0
  4  5  1  0  0  0  0
  6  5  1  6  0  0  0
  7  6  1  0  0  0  0
  8  6  1  0  0  0  0
  8 10  1  0  0  0  0
  8  9  1  1  0  0  0
 10 11  1  1  0  0  0
 12 13  1  6  0  0  0
 12  7  1  0  0  0  0
 12 10  1  0  0  0  0
 14 13  1  0  0  0  0
 15 16  1  0  0  0  0
 15 14  2  0  0  0  0
 16 23  2  0  0  0  0
 17 16  1  0  0  0  0
 17 19  1  0  0  0  0
 18 17  2  0  0  0  0
 19 20  2  0  0  0  0
 20 22  1  0  0  0  0
 20 21  1  0  0  0  0
 23 13  1  0  0  0  0
 23 22  1  0  0  0  0
 24 25  2  6  0  0  0
 24  9  1  0  0  0  0
 24 26  1  0  0  0  0
 27 28  1  0  0  0  0
 27 24  1  0  0  0  0
 29 30  1  6  0  0  0
 29 28  1  0  0  0  0
 31 32  1  1  0  0  0
 31 29  1  0  0  0  0
 33 34  1  1  0  0  0
 33 35  1  0  0  0  0
 33 31  1  0  0  0  0
 35 36  1  6  0  0  0
 35 30  1  0  0  0  0
 36 37  1  0  0  0  0
 38 37  2  0  0  0  0
 39 38  1  0  0  0  0
 40 41  2  0  0  0  0
 40 39  1  0  0  0  0
 42 40  1  0  0  0  0
 43 42  2  0  0  0  0
 43 45  1  0  0  0  0
 44 43  1  0  0  0  0
 45 46  1  0  0  0  0
 46 39  2  0  0  0  0
 46 36  1  0  0  0  0
M  END
>  <CHROM.1>
177.57207765,61.65839986,158.23164383,46.24245580,146.31350494,0.12146367
0.18729304,1.20350311

>  <Name>
lig.pdb

>  <RI>
0

>  <Rbt.Current_Directory>
/home/itssahil/PROJECTS/Mol_Feturizer/New_Systems/rnas/4yb0

>  <Rbt.Executable>
rbdock ($Id: //depot/dev/client3/rdock/2013.1/src/exe/rbdock.cxx#4 $)

>  <Rbt.Library>
libRbt.so (2013.1, Build901 2013/11/27)

>  <Rbt.Parameter_File>
/export/apps/rDock/src/rDock_2013.1_src/data/scripts/dock_solv.prm

>  <Rbt.Receptor>
prm/pocket_docking_7.prm

>  <SCORE>
-27.6818

>  <SCORE.INTER>
-27.3366

>  <SCORE.INTER.CONST>
1

>  <SCORE.INTER.POLAR>
0

>  <SCORE.INTER.ROT>
2

>  <SCORE.INTER.SOLV>
18.7666

>  <SCORE.INTER.VDW>
-29.4133

>  <SCORE.INTER.norm>
-0.594275

>  <SCORE.INTRA>
-0.345148

>  <SCORE.INTRA.DIHEDRAL>
0.0498776

>  <SCORE.INTRA.DIHEDRAL.0>
4.74153

>  <SCORE.INTRA.POLAR>
0

>  <SCORE.INTRA.POLAR.0>
0

>  <SCORE.INTRA.REPUL>
0

>  <SCORE.INTRA.REPUL.0>
0

>  <SCORE.INTRA.SOLV>
1.27152

>  <SCORE.INTRA.SOLV.lig_0>
-60.4375

>  <SCORE.INTRA.VDW>
-1.00585

>  <SCORE.INTRA.VDW.0>
-1.83689

>  <SCORE.INTRA.norm>
-0.00750321

>  <SCORE.RESTR>
0

>  <SCORE.RESTR.CAVITY>
0

>  <SCORE.RESTR.norm>
0

>  <SCORE.SYSTEM>
0

>  <SCORE.SYSTEM.CONST>
0

>  <SCORE.SYSTEM.DIHEDRAL>
0

>  <SCORE.SYSTEM.SOLV>
0

>  <SCORE.SYSTEM.norm>
0

>  <SCORE.heavy>
46

>  <SCORE.norm>
-0.601778

>  <RMSD>
5.623

$$$$
lig.pdb
 OpenBabel11021811523D
libRbt.so/2013.1/901 2013/11/27
 46 52  0  0  0  0  0  0  0  0999 V2000
  160.4197   43.3366  142.4257 P   0  0  2  0  0  0  0  0  0  0  0  0
  160.9318   43.5786  141.0225 O   0  0  0  0  0  0  0  0  0  0  0  0
  159.3501   42.2870  142.5851 O   0  0  0  0  0  0  0  0  0  0  0  0
  159.8943   44.6988  143.0991 O   0  0  0  0  0  0  0  0  0  0  0  0
  160.1174   45.9642  142.4906 C   0  0  0  0  0  0  0  0  0  0  0  0
  159.8804   47.0754  143.4999 C   0  0  1  0  0  0  0  0  0  0  0  0
  158.6149   47.6583  143.2227 O   0  0  0  0  0  0  0  0  0  0  0  0
  159.8394   46.6426  144.9599 C   0  0  1  0  0  0  0  0  0  0  0  0
  161.0577   46.9966  145.5978 O   0  0  0  0  0  0  0  0  0  0  0  0
  158.7365   47.4934  145.5488 C   0  0  1  0  0  0  0  0  0  0  0  0
  159.2857   48.7171  146.0415 O   0  0  0  0  0  0  0  0  0  0  0  0
  157.8417   47.8502  144.3975 C   0  0  2  0  0  0  0  0  0  0  0  0
  156.6922   46.9151  144.3663 N   0  0  0  0  0  0  0  0  0  0  0  0
  155.9793   46.5861  143.2750 C   0  0  0  0  0  0  0  0  0  0  0  0
  154.9886   45.7196  143.5955 N   0  0  0  0  0  0  0  0  0  0  0  0
  155.0561   45.4800  144.9172 C   0  0  0  0  0  0  0  0  0  0  0  0
  154.3074   44.6582  145.8971 C   0  0  0  0  0  0  0  0  0  0  0  0
  153.3312   43.9635  145.5252 O   0  0  0  0  0  0  0  0  0  0  0  0
  154.7087   44.6893  147.1795 N   0  0  0  0  0  0  0  0  0  0  0  0
  155.7562   45.4378  147.5738 C   0  0  0  0  0  0  0  0  0  0  0  0
  156.1183   45.4266  148.8761 N   0  0  0  0  0  0  0  0  0  0  0  0
  156.4815   46.2096  146.7329 N   0  0  0  0  0  0  0  0  0  0  0  0
  156.1845   46.2714  145.4173 C   0  0  0  0  0  0  0  0  0  0  0  0
  161.4838   46.4576  147.0688 P   0  0  2  0  0  0  0  0  0  0  0  0
  160.3338   46.6636  148.0244 O   0  0  0  0  0  0  0  0  0  0  0  0
  162.8506   47.0513  147.3539 O   0  0  0  0  0  0  0  0  0  0  0  0
  161.6318   44.8675  146.8252 O   0  0  0  0  0  0  0  0  0  0  0  0
  162.8166   44.3422  146.2281 C   0  0  0  0  0  0  0  0  0  0  0  0
  162.6280   42.9363  145.6498 C   0  0  1  0  0  0  0  0  0  0  0  0
  162.5458   41.9923  146.7198 O   0  0  0  0  0  0  0  0  0  0  0  0
  161.3740   42.7496  144.7986 C   0  0  1  0  0  0  0  0  0  0  0  0
  161.6328   42.9308  143.4070 O   0  0  0  0  0  0  0  0  0  0  0  0
  160.9819   41.3176  145.1112 C   0  0  1  0  0  0  0  0  0  0  0  0
  161.6623   40.4036  144.2466 O   0  0  0  0  0  0  0  0  0  0  0  0
  161.4764   41.0641  146.5199 C   0  0  2  0  0  0  0  0  0  0  0  0
  160.3934   41.3678  147.4879 N   0  0  0  0  0  0  0  0  0  0  0  0
  159.8013   42.5671  147.6544 C   0  0  0  0  0  0  0  0  0  0  0  0
  158.8325   42.5263  148.6109 N   0  0  0  0  0  0  0  0  0  0  0  0
  158.7874   41.2673  149.0747 C   0  0  0  0  0  0  0  0  0  0  0  0
  158.0050   40.5313  150.1003 C   0  0  0  0  0  0  0  0  0  0  0  0
  157.1075   41.0778  150.7770 O   0  0  0  0  0  0  0  0  0  0  0  0
  158.2745   39.2354  150.2671 N   0  0  0  0  0  0  0  0  0  0  0  0
  159.2237   38.6014  149.5615 C   0  0  0  0  0  0  0  0  0  0  0  0
  159.4205   37.3001  149.8209 N   0  0  0  0  0  0  0  0  0  0  0  0
  159.9835   39.2042  148.6172 N   0  0  0  0  0  0  0  0  0  0  0  0
  159.8176   40.5130  148.3329 C   0  0  0  0  0  0  0  0  0  0  0  0
  1  3  2  1  0  0  0
  1 32  1  0  0  0  0
  1  2  1  0  0  0  0
  1  4  1  0  0  0  0
  4  5  1  0  0  0  0
  6  5  1  6  0  0  0
  7  6  1  0  0  0  0
  8  6  1  0  0  0  0
  8 10  1  0  0  0  0
  8  9  1  1  0  0  0
 10 11  1  6  0  0  0
 12 13  1  6  0  0  0
 12  7  1  0  0  0  0
 12 10  1  0  0  0  0
 14 13  1  0  0  0  0
 15 16  1  0  0  0  0
 15 14  2  0  0  0  0
 16 23  2  0  0  0  0
 17 16  1  0  0  0  0
 17 19  1  0  0  0  0
 18 17  2  0  0  0  0
 19 20  2  0  0  0  0
 20 22  1  0  0  0  0
 20 21  1  0  0  0  0
 23 13  1  0  0  0  0
 23 22  1  0  0  0  0
 24 25  2  1  0  0  0
 24  9  1  0  0  0  0
 24 26  1  0  0  0  0
 27 28  1  0  0  0  0
 27 24  1  0  0  0  0
 29 30  1  1  0  0  0
 29 28  1  0  0  0  0
 31 32  1  6  0  0  0
 31 29  1  0  0  0  0
 33 34  1  6  0  0  0
 33 35  1  0  0  0  0
 33 31  1  0  0  0  0
 35 36  1  1  0  0  0
 35 30  1  0  0  0  0
 36 37  1  0  0  0  0
 38 37  2  0  0  0  0
 39 38  1  0  0  0  0
 40 41  2  0  0  0  0
 40 39  1  0  0  0  0
 42 40  1  0  0  0  0
 43 42  2  0  0  0  0
 43 45  1  0  0  0  0
 44 43  1  0  0  0  0
 45 46  1  0  0  0  0
 46 39  2  0  0  0  0
 46 36  1  0  0  0  0
M  END
>  <CHROM.1>
-38.52280657,53.82651929,159.22470825,44.01346184,145.97688936,-1.74488137
-0.39879975,2.47936483

>  <Name>
lig.pdb

>  <RI>
0

>  <Rbt.Current_Directory>
/home/itssahil/PROJECTS/Mol_Feturizer/New_Systems/rnas/4yb0

>  <Rbt.Executable>
rbdock ($Id: //depot/dev/client3/rdock/2013.1/src/exe/rbdock.cxx#4 $)

>  <Rbt.Library>
libRbt.so (2013.1, Build901 2013/11/27)

>  <Rbt.Parameter_File>
/export/apps/rDock/src/rDock_2013.1_src/data/scripts/dock_solv.prm

>  <Rbt.Receptor>
prm/pocket_docking_6.prm

>  <SCORE>
-23.1158

>  <SCORE.INTER>
-23.5149

>  <SCORE.INTER.CONST>
1

>  <SCORE.INTER.POLAR>
0

>  <SCORE.INTER.ROT>
2

>  <SCORE.INTER.SOLV>
19.1024

>  <SCORE.INTER.VDW>
-26.9774

>  <SCORE.INTER.norm>
-0.511194

>  <SCORE.INTRA>
0.399184

>  <SCORE.INTRA.DIHEDRAL>
0.12071

>  <SCORE.INTRA.DIHEDRAL.0>
4.74153

>  <SCORE.INTRA.POLAR>
0

>  <SCORE.INTRA.POLAR.0>
0

>  <SCORE.INTRA.REPUL>
0.00260801

>  <SCORE.INTRA.REPUL.0>
0

>  <SCORE.INTRA.SOLV>
0.327625

>  <SCORE.INTRA.SOLV.lig_0>
-60.4375

>  <SCORE.INTRA.VDW>
0.161976

>  <SCORE.INTRA.VDW.0>
-1.83689

>  <SCORE.INTRA.norm>
0.00867791

>  <SCORE.RESTR>
0

>  <SCORE.RESTR.CAVITY>
0

>  <SCORE.RESTR.norm>
0

>  <SCORE.SYSTEM>
0

>  <SCORE.SYSTEM.CONST>
0

>  <SCORE.SYSTEM.DIHEDRAL>
0

>  <SCORE.SYSTEM.SOLV>
0

>  <SCORE.SYSTEM.norm>
0

>  <SCORE.heavy>
46

>  <SCORE.norm>
-0.502516

>  <RMSD>
5.628

$$$$
lig.pdb
 OpenBabel11021811523D
libRbt.so/2013.1/901 2013/11/27
 46 52  0  0  0  0  0  0  0  0999 V2000
  160.5017   43.4175  142.4242 P   0  0  2  0  0  0  0  0  0  0  0  0
  161.0154   43.6584  141.0214 O   0  0  0  0  0  0  0  0  0  0  0  0
  159.4312   42.3688  142.5829 O   0  0  0  0  0  0  0  0  0  0  0  0
  159.9767   44.7804  143.0964 O   0  0  0  0  0  0  0  0  0  0  0  0
  160.2014   46.0453  142.4876 C   0  0  0  0  0  0  0  0  0  0  0  0
  159.9642   47.1572  143.4961 C   0  0  1  0  0  0  0  0  0  0  0  0
  158.6994   47.7409  143.2174 O   0  0  0  0  0  0  0  0  0  0  0  0
  159.9213   46.7251  144.9563 C   0  0  1  0  0  0  0  0  0  0  0  0
  161.1393   47.0785  145.5952 O   0  0  0  0  0  0  0  0  0  0  0  0
  158.8185   47.5769  145.5436 C   0  0  1  0  0  0  0  0  0  0  0  0
  159.3681   48.8005  146.0363 O   0  0  0  0  0  0  0  0  0  0  0  0
  157.9252   47.9339  144.3912 C   0  0  2  0  0  0  0  0  0  0  0  0
  156.7750   46.9996  144.3594 N   0  0  0  0  0  0  0  0  0  0  0  0
  156.0619   46.6719  143.2678 C   0  0  0  0  0  0  0  0  0  0  0  0
  155.0705   45.8059  143.5876 N   0  0  0  0  0  0  0  0  0  0  0  0
  155.1378   45.5653  144.9091 C   0  0  0  0  0  0  0  0  0  0  0  0
  154.3885   44.7433  145.8884 C   0  0  0  0  0  0  0  0  0  0  0  0
  153.4118   44.0496  145.5159 O   0  0  0  0  0  0  0  0  0  0  0  0
  154.7898   44.7732  147.1708 N   0  0  0  0  0  0  0  0  0  0  0  0
  155.8378   45.5206  147.5657 C   0  0  0  0  0  0  0  0  0  0  0  0
  156.1998   45.5082  148.8680 N   0  0  0  0  0  0  0  0  0  0  0  0
  156.5637   46.2926  146.7254 N   0  0  0  0  0  0  0  0  0  0  0  0
  156.2668   46.3555  145.4098 C   0  0  0  0  0  0  0  0  0  0  0  0
  161.5634   46.5398  147.0669 P   0  0  2  0  0  0  0  0  0  0  0  0
  160.4126   46.7471  148.0213 O   0  0  0  0  0  0  0  0  0  0  0  0
  162.9304   47.1326  147.3531 O   0  0  0  0  0  0  0  0  0  0  0  0
  161.7105   44.9495  146.8242 O   0  0  0  0  0  0  0  0  0  0  0  0
  162.8956   44.4231  146.2285 C   0  0  0  0  0  0  0  0  0  0  0  0
  162.7065   43.0170  145.6507 C   0  0  1  0  0  0  0  0  0  0  0  0
  162.6225   42.0735  146.7211 O   0  0  0  0  0  0  0  0  0  0  0  0
  161.4532   42.8309  144.7983 C   0  0  1  0  0  0  0  0  0  0  0  0
  161.7135   43.0112  143.4069 O   0  0  0  0  0  0  0  0  0  0  0  0
  161.0597   41.3993  145.1112 C   0  0  1  0  0  0  0  0  0  0  0  0
  161.7403   40.4844  144.2477 O   0  0  0  0  0  0  0  0  0  0  0  0
  161.5526   41.1460  146.5206 C   0  0  2  0  0  0  0  0  0  0  0  0
  160.4689   41.4510  147.4873 N   0  0  0  0  0  0  0  0  0  0  0  0
  159.8843   42.6532  147.6595 C   0  0  0  0  0  0  0  0  0  0  0  0
  158.9124   42.6130  148.6129 N   0  0  0  0  0  0  0  0  0  0  0  0
  158.8576   41.3515  149.0688 C   0  0  0  0  0  0  0  0  0  0  0  0
  158.0673   40.6144  150.0876 C   0  0  0  0  0  0  0  0  0  0  0  0
  157.1715   41.1628  150.7650 O   0  0  0  0  0  0  0  0  0  0  0  0
  158.3277   39.3158  150.2471 N   0  0  0  0  0  0  0  0  0  0  0  0
  159.2746   38.6798  149.5403 C   0  0  0  0  0  0  0  0  0  0  0  0
  159.4620   37.3756  149.7921 N   0  0  0  0  0  0  0  0  0  0  0  0
  160.0412   39.2833  148.6020 N   0  0  0  0  0  0  0  0  0  0  0  0
  159.8849   40.5949  148.3253 C   0  0  0  0  0  0  0  0  0  0  0  0
  1  3  2  1  0  0  0
  1 32  1  0  0  0  0
  1  2  1  0  0  0  0
  1  4  1  0  0  0  0
  4  5  1  0  0  0  0
  6  5  1  6  0  0  0
  7  6  1  0  0  0  0
  8  6  1  0  0  0  0
  8 10  1  0  0  0  0
  8  9  1  1  0  0  0
 10 11  1  6  0  0  0
 12 13  1  6  0  0  0
 12  7  1  0  0  0  0
 12 10  1  0  0  0  0
 14 13  1  0  0  0  0
 15 16  1  0  0  0  0
 15 14  2  0  0  0  0
 16 23  2  0  0  0  0
 17 16  1  0  0  0  0
 17 19  1  0  0  0  0
 18 17  2  0  0  0  0
 19 20  2  0  0  0  0
 20 22  1  0  0  0  0
 20 21  1  0  0  0  0
 23 13  1  0  0  0  0
 23 22  1  0  0  0  0
 24 25  2  1  0  0  0
 24  9  1  0  0  0  0
 24 26  1  0  0  0  0
 27 28  1  0  0  0  0
 27 24  1  0  0  0  0
 29 30  1  1  0  0  0
 29 28  1  0  0  0  0
 31 32  1  6  0  0  0
 31 29  1  0  0  0  0
 33 34  1  6  0  0  0
 33 35  1  0  0  0  0
 33 31  1  0  0  0  0
 35 36  1  1  0  0  0
 35 30  1  0  0  0  0
 36 37  1  0  0  0  0
 38 37  2  0  0  0  0
 39 38  1  0  0  0  0
 40 41  2  0  0  0  0
 40 39  1  0  0  0  0
 42 40  1  0  0  0  0
 43 42  2  0  0  0  0
 43 45  1  0  0  0  0
 44 43  1  0  0  0  0
 45 46  1  0  0  0  0
 46 39  2  0  0  0  0
 46 36  1  0  0  0  0
M  END
>  <CHROM.1>
-38.61169100,53.30362983,159.30201577,44.09587732,145.97178701,-1.74056527
-0.39736680,2.48244021

>  <Name>
lig.pdb

>  <RI>
0

>  <Rbt.Current_Directory>
/home/itssahil/PROJECTS/Mol_Feturizer/New_Systems/rnas/4yb0

>  <Rbt.Executable>
rbdock ($Id: //depot/dev/client3/rdock/2013.1/src/exe/rbdock.cxx#4 $)

>  <Rbt.Library>
libRbt.so (2013.1, Build901 2013/11/27)

>  <Rbt.Parameter_File>
/export/apps/rDock/src/rDock_2013.1_src/data/scripts/dock_solv.prm

>  <Rbt.Receptor>
prm/pocket_docking_6.prm

>  <SCORE>
-23.1821

>  <SCORE.INTER>
-23.5795

>  <SCORE.INTER.CONST>
1

>  <SCORE.INTER.POLAR>
0

>  <SCORE.INTER.ROT>
2

>  <SCORE.INTER.SOLV>
18.4862

>  <SCORE.INTER.VDW>
-26.8151

>  <SCORE.INTER.norm>
-0.512599

>  <SCORE.INTRA>
0.397455

>  <SCORE.INTRA.DIHEDRAL>
0.12216

>  <SCORE.INTRA.DIHEDRAL.0>
4.74153

>  <SCORE.INTRA.POLAR>
0

>  <SCORE.INTRA.POLAR.0>
0

>  <SCORE.INTRA.REPUL>
0.0022192

>  <SCORE.INTRA.REPUL.0>
0

>  <SCORE.INTRA.SOLV>
0.331528

>  <SCORE.INTRA.SOLV.lig_0>
-60.4375

>  <SCORE.INTRA.VDW>
0.159514

>  <SCORE.INTRA.VDW.0>
-1.83689

>  <SCORE.INTRA.norm>
0.00864032

>  <SCORE.RESTR>
0

>  <SCORE.RESTR.CAVITY>
0

>  <SCORE.RESTR.norm>
0

>  <SCORE.SYSTEM>
0

>  <SCORE.SYSTEM.CONST>
0

>  <SCORE.SYSTEM.DIHEDRAL>
0

>  <SCORE.SYSTEM.SOLV>
0

>  <SCORE.SYSTEM.norm>
0

>  <SCORE.heavy>
46

>  <SCORE.norm>
-0.503958

>  <RMSD>
5.655

$$$$
lig.pdb
 OpenBabel11021811523D
libRbt.so/2013.1/901 2013/11/27
 46 52  0  0  0  0  0  0  0  0999 V2000
  160.3937   43.3128  142.3558 P   0  0  2  0  0  0  0  0  0  0  0  0
  160.8602   43.5113  140.9301 O   0  0  0  0  0  0  0  0  0  0  0  0
  159.3368   42.2627  142.5828 O   0  0  0  0  0  0  0  0  0  0  0  0
  159.8801   44.6933  143.0003 O   0  0  0  0  0  0  0  0  0  0  0  0
  160.0755   45.9392  142.3440 C   0  0  0  0  0  0  0  0  0  0  0  0
  159.8623   47.0817  143.3232 C   0  0  1  0  0  0  0  0  0  0  0  0
  158.5849   47.6477  143.0669 O   0  0  0  0  0  0  0  0  0  0  0  0
  159.8697   46.6970  144.7973 C   0  0  1  0  0  0  0  0  0  0  0  0
  161.1048   47.0790  145.3847 O   0  0  0  0  0  0  0  0  0  0  0  0
  158.7798   47.5602  145.3921 C   0  0  1  0  0  0  0  0  0  0  0  0
  159.3356   48.8028  145.8271 O   0  0  0  0  0  0  0  0  0  0  0  0
  157.8472   47.8737  144.2583 C   0  0  2  0  0  0  0  0  0  0  0  0
  156.7038   46.9313  144.2938 N   0  0  0  0  0  0  0  0  0  0  0  0
  155.9605   46.5613  143.2364 C   0  0  0  0  0  0  0  0  0  0  0  0
  154.9858   45.7004  143.6161 N   0  0  0  0  0  0  0  0  0  0  0  0
  155.0950   45.5062  144.9424 C   0  0  0  0  0  0  0  0  0  0  0  0
  154.3820   44.7137  145.9718 C   0  0  0  0  0  0  0  0  0  0  0  0
  153.3998   44.0011  145.6535 O   0  0  0  0  0  0  0  0  0  0  0  0
  154.8217   44.7907  147.2396 N   0  0  0  0  0  0  0  0  0  0  0  0
  155.8755   45.5583  147.5763 C   0  0  0  0  0  0  0  0  0  0  0  0
  156.2768   45.5934  148.8666 N   0  0  0  0  0  0  0  0  0  0  0  0
  156.5696   46.3054  146.6882 N   0  0  0  0  0  0  0  0  0  0  0  0
  156.2326   46.3207  145.3808 C   0  0  0  0  0  0  0  0  0  0  0  0
  161.5800   46.5912  146.8586 P   0  0  2  0  0  0  0  0  0  0  0  0
  160.4589   46.8219  147.8425 O   0  0  0  0  0  0  0  0  0  0  0  0
  162.9509   47.2020  147.0812 O   0  0  0  0  0  0  0  0  0  0  0  0
  161.7313   44.9949  146.6627 O   0  0  0  0  0  0  0  0  0  0  0  0
  162.9006   44.4572  146.0463 C   0  0  0  0  0  0  0  0  0  0  0  0
  162.7038   43.0318  145.5206 C   0  0  1  0  0  0  0  0  0  0  0  0
  162.6614   42.1232  146.6230 O   0  0  0  0  0  0  0  0  0  0  0  0
  161.4253   42.8099  144.7156 C   0  0  1  0  0  0  0  0  0  0  0  0
  161.6394   42.9466  143.3114 O   0  0  0  0  0  0  0  0  0  0  0  0
  161.0530   41.3867  145.0871 C   0  0  1  0  0  0  0  0  0  0  0  0
  161.7124   40.4487  144.2321 O   0  0  0  0  0  0  0  0  0  0  0  0
  161.5928   41.1826  146.4872 C   0  0  2  0  0  0  0  0  0  0  0  0
  160.5383   41.5117  147.4781 N   0  0  0  0  0  0  0  0  0  0  0  0
  160.0103   42.7340  147.6876 C   0  0  0  0  0  0  0  0  0  0  0  0
  159.0521   42.7137  148.6554 N   0  0  0  0  0  0  0  0  0  0  0  0
  158.9482   41.4453  149.0827 C   0  0  0  0  0  0  0  0  0  0  0  0
  158.1415   40.7195  150.0967 C   0  0  0  0  0  0  0  0  0  0  0  0
  157.2812   41.2904  150.8010 O   0  0  0  0  0  0  0  0  0  0  0  0
  158.3464   39.4072  150.2218 N   0  0  0  0  0  0  0  0  0  0  0  0
  159.2535   38.7473  149.4852 C   0  0  0  0  0  0  0  0  0  0  0  0
  159.3866   37.4306  149.7036 N   0  0  0  0  0  0  0  0  0  0  0  0
  160.0318   39.3388  148.5489 N   0  0  0  0  0  0  0  0  0  0  0  0
  159.9296   40.6623  148.3053 C   0  0  0  0  0  0  0  0  0  0  0  0
  1  3  2  1  0  0  0
  1 32  1  0  0  0  0
  1  2  1  0  0  0  0
  1  4  1  0  0  0  0
  4  5  1  0  0  0  0
  6  5  1  6  0  0  0
  7  6  1  0  0  0  0
  8  6  1  0  0  0  0
  8 10  1  0  0  0  0
  8  9  1  1  0  0  0
 10 11  1  6  0  0  0
 12 13  1  6  0  0  0
 12  7  1  0  0  0  0
 12 10  1  0  0  0  0
 14 13  1  0  0  0  0
 15 16  1  0  0  0  0
 15 14  2  0  0  0  0
 16 23  2  0  0  0  0
 17 16  1  0  0  0  0
 17 19  1  0  0  0  0
 18 17  2  0  0  0  0
 19 20  2  0  0  0  0
 20 22  1  0  0  0  0
 20 21  1  0  0  0  0
 23 13  1  0  0  0  0
 23 22  1  0  0  0  0
 24 25  2  1  0  0  0
 24  9  1  0  0  0  0
 24 26  1  0  0  0  0
 27 28  1  0  0  0  0
 27 24  1  0  0  0  0
 29 30  1  1  0  0  0
 29 28  1  0  0  0  0
 31 32  1  6  0  0  0
 31 29  1  0  0  0  0
 33 34  1  6  0  0  0
 33 35  1  0  0  0  0
 33 31  1  0  0  0  0
 35 36  1  1  0  0  0
 35 30  1  0  0  0  0
 36 37  1  0  0  0  0
 38 37  2  0  0  0  0
 39 38  1  0  0  0  0
 40 41  2  0  0  0  0
 40 39  1  0  0  0  0
 42 40  1  0  0  0  0
 43 42  2  0  0  0  0
 43 45  1  0  0  0  0
 44 43  1  0  0  0  0
 45 46  1  0  0  0  0
 46 39  2  0  0  0  0
 46 36  1  0  0  0  0
M  END
>  <CHROM.1>
-38.44998171,48.85062282,159.28580288,44.09394492,145.90030770,-1.74724410
-0.41181065,2.46454935

>  <Name>
lig.pdb

>  <RI>
0

>  <Rbt.Current_Directory>
/home/itssahil/PROJECTS/Mol_Feturizer/New_Systems/rnas/4yb0

>  <Rbt.Executable>
rbdock ($Id: //depot/dev/client3/rdock/2013.1/src/exe/rbdock.cxx#4 $)

>  <Rbt.Library>
libRbt.so (2013.1, Build901 2013/11/27)

>  <Rbt.Parameter_File>
/export/apps/rDock/src/rDock_2013.1_src/data/scripts/dock_solv.prm

>  <Rbt.Receptor>
prm/pocket_docking_5.prm

>  <SCORE>
-23.0356

>  <SCORE.INTER>
-23.4436

>  <SCORE.INTER.CONST>
1

>  <SCORE.INTER.POLAR>
0

>  <SCORE.INTER.ROT>
2

>  <SCORE.INTER.SOLV>
18.9135

>  <SCORE.INTER.VDW>
-26.8669

>  <SCORE.INTER.norm>
-0.509643

>  <SCORE.INTRA>
0.407964

>  <SCORE.INTRA.DIHEDRAL>
0.13464

>  <SCORE.INTRA.DIHEDRAL.0>
4.74153

>  <SCORE.INTRA.POLAR>
0

>  <SCORE.INTRA.POLAR.0>
0

>  <SCORE.INTRA.REPUL>
0.00292266

>  <SCORE.INTRA.REPUL.0>
0

>  <SCORE.INTRA.SOLV>
0.339432

>  <SCORE.INTRA.SOLV.lig_0>
-60.4375

>  <SCORE.INTRA.VDW>
0.156315

>  <SCORE.INTRA.VDW.0>
-1.83689

>  <SCORE.INTRA.norm>
0.00886879

>  <SCORE.RESTR>
0

>  <SCORE.RESTR.CAVITY>
0

>  <SCORE.RESTR.norm>
0

>  <SCORE.SYSTEM>
0

>  <SCORE.SYSTEM.CONST>
0

>  <SCORE.SYSTEM.DIHEDRAL>
0

>  <SCORE.SYSTEM.SOLV>
0

>  <SCORE.SYSTEM.norm>
0

>  <SCORE.heavy>
46

>  <SCORE.norm>
-0.500774

>  <RMSD>
5.677

$$$$
lig.pdb
 OpenBabel11021811523D
libRbt.so/2013.1/901 2013/11/27
 46 52  0  0  0  0  0  0  0  0999 V2000
  156.5777   45.9145  146.0689 P   0  0  2  0  0  0  0  0  0  0  0  0
  155.4982   46.8598  146.5491 O   0  0  0  0  0  0  0  0  0  0  0  0
  156.1879   44.9291  144.9973 O   0  0  0  0  0  0  0  0  0  0  0  0
  157.2270   45.0986  147.2927 O   0  0  0  0  0  0  0  0  0  0  0  0
  156.9391   45.4308  148.6447 C   0  0  0  0  0  0  0  0  0  0  0  0
  157.9607   44.7866  149.5673 C   0  0  1  0  0  0  0  0  0  0  0  0
  157.3520   43.6569  150.1766 O   0  0  0  0  0  0  0  0  0  0  0  0
  159.2281   44.2760  148.8937 C   0  0  1  0  0  0  0  0  0  0  0  0
  160.2987   45.1741  149.1464 O   0  0  0  0  0  0  0  0  0  0  0  0
  159.5178   42.9829  149.6223 C   0  0  1  0  0  0  0  0  0  0  0  0
  160.3549   43.2451  150.7504 O   0  0  0  0  0  0  0  0  0  0  0  0
  158.1963   42.5161  150.1600 C   0  0  2  0  0  0  0  0  0  0  0  0
  157.6203   41.5135  149.2327 N   0  0  0  0  0  0  0  0  0  0  0  0
  157.2854   41.7345  147.9496 C   0  0  0  0  0  0  0  0  0  0  0  0
  156.7721   40.6125  147.3903 N   0  0  0  0  0  0  0  0  0  0  0  0
  156.7718   39.6443  148.3238 C   0  0  0  0  0  0  0  0  0  0  0  0
  156.3660   38.2207  148.3913 C   0  0  0  0  0  0  0  0  0  0  0  0
  155.8754   37.6544  147.3850 O   0  0  0  0  0  0  0  0  0  0  0  0
  156.5395   37.5728  149.5560 N   0  0  0  0  0  0  0  0  0  0  0  0
  157.0651   38.1855  150.6336 C   0  0  0  0  0  0  0  0  0  0  0  0
  157.2210   37.4829  151.7778 N   0  0  0  0  0  0  0  0  0  0  0  0
  157.4555   39.4803  150.6404 N   0  0  0  0  0  0  0  0  0  0  0  0
  157.3351   40.2473  149.5358 C   0  0  0  0  0  0  0  0  0  0  0  0
  161.7233   45.1044  148.3707 P   0  0  2  0  0  0  0  0  0  0  0  0
  162.2354   43.6849  148.4014 O   0  0  0  0  0  0  0  0  0  0  0  0
  162.5570   46.2464  148.9206 O   0  0  0  0  0  0  0  0  0  0  0  0
  161.3036   45.4346  146.8461 O   0  0  0  0  0  0  0  0  0  0  0  0
  161.0853   46.7852  146.4404 C   0  0  0  0  0  0  0  0  0  0  0  0
  160.2672   46.9025  145.1506 C   0  0  1  0  0  0  0  0  0  0  0  0
  161.0807   46.5221  144.0387 O   0  0  0  0  0  0  0  0  0  0  0  0
  159.0130   46.0330  145.0986 C   0  0  1  0  0  0  0  0  0  0  0  0
  157.8460   46.7412  145.5145 O   0  0  0  0  0  0  0  0  0  0  0  0
  158.9426   45.6556  143.6307 C   0  0  1  0  0  0  0  0  0  0  0  0
  158.2404   46.6519  142.8823 O   0  0  0  0  0  0  0  0  0  0  0  0
  160.3779   45.6520  143.1475 C   0  0  2  0  0  0  0  0  0  0  0  0
  160.9401   44.2844  143.2732 N   0  0  0  0  0  0  0  0  0  0  0  0
  162.0390   43.9478  143.9772 C   0  0  0  0  0  0  0  0  0  0  0  0
  162.2948   42.6116  143.9105 N   0  0  0  0  0  0  0  0  0  0  0  0
  161.3346   42.0626  143.1496 C   0  0  0  0  0  0  0  0  0  0  0  0
  161.0052   40.7001  142.6592 C   0  0  0  0  0  0  0  0  0  0  0  0
  161.6880   39.6973  142.9597 O   0  0  0  0  0  0  0  0  0  0  0  0
  159.9220   40.5675  141.8918 N   0  0  0  0  0  0  0  0  0  0  0  0
  159.1530   41.6115  141.5462 C   0  0  0  0  0  0  0  0  0  0  0  0
  158.0953   41.3656  140.7587 N   0  0  0  0  0  0  0  0  0  0  0  0
  159.3922   42.8827  141.9451 N   0  0  0  0  0  0  0  0  0  0  0  0
  160.4497   43.1690  142.7332 C   0  0  0  0  0  0  0  0  0  0  0  0
  1  3  2  6  0  0  0
  1 32  1  0  0  0  0
  1  2  1  0  0  0  0
  1  4  1  0  0  0  0
  4  5  1  0  0  0  0
  6  5  1  6  0  0  0
  7  6  1  0  0  0  0
  8  6  1  0  0  0  0
  8 10  1  0  0  0  0
  8  9  1  1  0  0  0
 10 11  1  1  0  0  0
 12 13  1  6  0  0  0
 12  7  1  0  0  0  0
 12 10  1  0  0  0  0
 14 13  1  0  0  0  0
 15 16  1  0  0  0  0
 15 14  2  0  0  0  0
 16 23  2  0  0  0  0
 17 16  1  0  0  0  0
 17 19  1  0  0  0  0
 18 17  2  0  0  0  0
 19 20  2  0  0  0  0
 20 22  1  0  0  0  0
 20 21  1  0  0  0  0
 23 13  1  0  0  0  0
 23 22  1  0  0  0  0
 24 25  2  1  0  0  0
 24  9  1  0  0  0  0
 24 26  1  0  0  0  0
 27 28  1  0  0  0  0
 27 24  1  0  0  0  0
 29 30  1  6  0  0  0
 29 28  1  0  0  0  0
 31 32  1  6  0  0  0
 31 29  1  0  0  0  0
 33 34  1  6  0  0  0
 33 35  1  0  0  0  0
 33 31  1  0  0  0  0
 35 36  1  1  0  0  0
 35 30  1  0  0  0  0
 36 37  1  0  0  0  0
 38 37  2  0  0  0  0
 39 38  1  0  0  0  0
 40 41  2  0  0  0  0
 40 39  1  0  0  0  0
 42 40  1  0  0  0  0
 43 42  2  0  0  0  0
 43 45  1  0  0  0  0
 44 43  1  0  0  0  0
 45 46  1  0  0  0  0
 46 39  2  0  0  0  0
 46 36  1  0  0  0  0
M  END
>  <CHROM.1>
53.73411846,-7.82469615,158.98773870,43.29359618,146.58095065,-0.11720095
1.21981309,0.83355091

>  <Name>
lig.pdb

>  <RI>
0

>  <Rbt.Current_Directory>
/home/itssahil/PROJECTS/Mol_Feturizer/New_Systems/rnas/4yb0

>  <Rbt.Executable>
rbdock ($Id: //depot/dev/client3/rdock/2013.1/src/exe/rbdock.cxx#4 $)

>  <Rbt.Library>
libRbt.so (2013.1, Build901 2013/11/27)

>  <Rbt.Parameter_File>
/export/apps/rDock/src/rDock_2013.1_src/data/scripts/dock_solv.prm

>  <Rbt.Receptor>
prm/pocket_docking_6.prm

>  <SCORE>
-20.0138

>  <SCORE.INTER>
-19.9041

>  <SCORE.INTER.CONST>
1

>  <SCORE.INTER.POLAR>
0

>  <SCORE.INTER.ROT>
2

>  <SCORE.INTER.SOLV>
17.917

>  <SCORE.INTER.VDW>
-24.1751

>  <SCORE.INTER.norm>
-0.432699

>  <SCORE.INTRA>
-0.114306

>  <SCORE.INTRA.DIHEDRAL>
0.0192084

>  <SCORE.INTRA.DIHEDRAL.0>
4.74153

>  <SCORE.INTRA.POLAR>
0

>  <SCORE.INTRA.POLAR.0>
0

>  <SCORE.INTRA.REPUL>
0

>  <SCORE.INTRA.REPUL.0>
0

>  <SCORE.INTRA.SOLV>
-0.0170412

>  <SCORE.INTRA.SOLV.lig_0>
-60.4375

>  <SCORE.INTRA.VDW>
-0.115389

>  <SCORE.INTRA.VDW.0>
-1.83689

>  <SCORE.INTRA.norm>
-0.00248491

>  <SCORE.RESTR>
0.00462645

>  <SCORE.RESTR.CAVITY>
0.00462645

>  <SCORE.RESTR.norm>
0.000100575

>  <SCORE.SYSTEM>
0

>  <SCORE.SYSTEM.CONST>
0

>  <SCORE.SYSTEM.DIHEDRAL>
0

>  <SCORE.SYSTEM.SOLV>
0

>  <SCORE.SYSTEM.norm>
0

>  <SCORE.heavy>
46

>  <SCORE.norm>
-0.435083

>  <RMSD>
5.756

$$$$
lig.pdb
 OpenBabel11021811523D
libRbt.so/2013.1/901 2013/11/27
 46 52  0  0  0  0  0  0  0  0999 V2000
  160.2453   43.1405  142.5017 P   0  0  2  0  0  0  0  0  0  0  0  0
  160.5772   43.1669  141.0256 O   0  0  0  0  0  0  0  0  0  0  0  0
  159.2307   42.1203  142.9498 O   0  0  0  0  0  0  0  0  0  0  0  0
  159.7698   44.5864  143.0197 O   0  0  0  0  0  0  0  0  0  0  0  0
  159.8845   45.7444  142.2030 C   0  0  0  0  0  0  0  0  0  0  0  0
  159.7423   46.9962  143.0529 C   0  0  1  0  0  0  0  0  0  0  0  0
  158.4378   47.5202  142.8489 O   0  0  0  0  0  0  0  0  0  0  0  0
  159.8897   46.7934  144.5555 C   0  0  1  0  0  0  0  0  0  0  0  0
  161.1666   47.2504  144.9765 O   0  0  0  0  0  0  0  0  0  0  0  0
  158.8443   47.7168  145.1398 C   0  0  1  0  0  0  0  0  0  0  0  0
  159.4169   49.0059  145.3689 O   0  0  0  0  0  0  0  0  0  0  0  0
  157.8077   47.8853  144.0672 C   0  0  2  0  0  0  0  0  0  0  0  0
  156.6877   46.9483  144.3210 N   0  0  0  0  0  0  0  0  0  0  0  0
  155.8639   46.4410  143.3875 C   0  0  0  0  0  0  0  0  0  0  0  0
  154.9399   45.6300  143.9565 N   0  0  0  0  0  0  0  0  0  0  0  0
  155.1645   45.6084  145.2823 C   0  0  0  0  0  0  0  0  0  0  0  0
  154.5550   44.9504  146.4620 C   0  0  0  0  0  0  0  0  0  0  0  0
  153.5617   44.1967  146.3230 O   0  0  0  0  0  0  0  0  0  0  0  0
  155.0993   45.1922  147.6669 N   0  0  0  0  0  0  0  0  0  0  0  0
  156.1645   46.0031  147.8108 C   0  0  0  0  0  0  0  0  0  0  0  0
  156.6732   46.2062  149.0467 N   0  0  0  0  0  0  0  0  0  0  0  0
  156.7679   46.6343  146.7782 N   0  0  0  0  0  0  0  0  0  0  0  0
  156.3210   46.4795  145.5136 C   0  0  0  0  0  0  0  0  0  0  0  0
  161.7815   46.9477  146.4484 P   0  0  2  0  0  0  0  0  0  0  0  0
  160.7506   47.2902  147.4963 O   0  0  0  0  0  0  0  0  0  0  0  0
  163.1567   47.5881  146.4686 O   0  0  0  0  0  0  0  0  0  0  0  0
  161.9405   45.3402  146.4331 O   0  0  0  0  0  0  0  0  0  0  0  0
  163.0576   44.7377  145.7810 C   0  0  0  0  0  0  0  0  0  0  0  0
  162.8372   43.2581  145.4512 C   0  0  1  0  0  0  0  0  0  0  0  0
  162.9099   42.4898  146.6542 O   0  0  0  0  0  0  0  0  0  0  0  0
  161.4947   42.9333  144.7999 C   0  0  1  0  0  0  0  0  0  0  0  0
  161.5784   42.8996  143.3758 O   0  0  0  0  0  0  0  0  0  0  0  0
  161.1810   41.5639  145.3727 C   0  0  1  0  0  0  0  0  0  0  0  0
  161.7754   40.5324  144.5799 O   0  0  0  0  0  0  0  0  0  0  0  0
  161.8488   41.5341  146.7316 C   0  0  2  0  0  0  0  0  0  0  0  0
  160.8834   41.9757  147.7685 N   0  0  0  0  0  0  0  0  0  0  0  0
  160.8489   43.1946  148.3425 C   0  0  0  0  0  0  0  0  0  0  0  0
  159.8386   43.2999  149.2499 N   0  0  0  0  0  0  0  0  0  0  0  0
  159.1942   42.1222  149.2626 C   0  0  0  0  0  0  0  0  0  0  0  0
  158.0417   41.5401  149.9965 C   0  0  0  0  0  0  0  0  0  0  0  0
  157.3853   42.1918  150.8370 O   0  0  0  0  0  0  0  0  0  0  0  0
  157.7020   40.2821  149.7105 N   0  0  0  0  0  0  0  0  0  0  0  0
  158.3707   39.5429  148.8120 C   0  0  0  0  0  0  0  0  0  0  0  0
  157.9514   38.2844  148.6128 N   0  0  0  0  0  0  0  0  0  0  0  0
  159.4347   39.9985  148.1102 N   0  0  0  0  0  0  0  0  0  0  0  0
  159.8882   41.2571  148.2878 C   0  0  0  0  0  0  0  0  0  0  0  0
  1  3  2  1  0  0  0
  1 32  1  0  0  0  0
  1  2  1  0  0  0  0
  1  4  1  0  0  0  0
  4  5  1  0  0  0  0
  6  5  1  6  0  0  0
  7  6  1  0  0  0  0
  8  6  1  0  0  0  0
  8 10  1  0  0  0  0
  8  9  1  1  0  0  0
 10 11  1  6  0  0  0
 12 13  1  1  0  0  0
 12  7  1  0  0  0  0
 12 10  1  0  0  0  0
 14 13  1  0  0  0  0
 15 16  1  0  0  0  0
 15 14  2  0  0  0  0
 16 23  2  0  0  0  0
 17 16  1  0  0  0  0
 17 19  1  0  0  0  0
 18 17  2  0  0  0  0
 19 20  2  0  0  0  0
 20 22  1  0  0  0  0
 20 21  1  0  0  0  0
 23 13  1  0  0  0  0
 23 22  1  0  0  0  0
 24 25  2  1  0  0  0
 24  9  1  0  0  0  0
 24 26  1  0  0  0  0
 27 28  1  0  0  0  0
 27 24  1  0  0  0  0
 29 30  1  1  0  0  0
 29 28  1  0  0  0  0
 31 32  1  6  0  0  0
 31 29  1  0  0  0  0
 33 34  1  6  0  0  0
 33 35  1  0  0  0  0
 33 31  1  0  0  0  0
 35 36  1  1  0  0  0
 35 30  1  0  0  0  0
 36 37  1  0  0  0  0
 38 37  2  0  0  0  0
 39 38  1  0  0  0  0
 40 41  2  0  0  0  0
 40 39  1  0  0  0  0
 42 40  1  0  0  0  0
 43 42  2  0  0  0  0
 43 45  1  0  0  0  0
 44 43  1  0  0  0  0
 45 46  1  0  0  0  0
 46 39  2  0  0  0  0
 46 36  1  0  0  0  0
M  END
>  <CHROM.1>
-37.92447249,12.78444526,159.31051327,44.35115740,145.88085081,-1.64392099
-0.41543957,2.48791772

>  <Name>
lig.pdb

>  <RI>
0

>  <Rbt.Current_Directory>
/home/itssahil/PROJECTS/Mol_Feturizer/New_Systems/rnas/4yb0

>  <Rbt.Executable>
rbdock ($Id: //depot/dev/client3/rdock/2013.1/src/exe/rbdock.cxx#4 $)

>  <Rbt.Library>
libRbt.so (2013.1, Build901 2013/11/27)

>  <Rbt.Parameter_File>
/export/apps/rDock/src/rDock_2013.1_src/data/scripts/dock_solv.prm

>  <Rbt.Receptor>
prm/pocket_docking_5.prm

>  <SCORE>
-21.2548

>  <SCORE.INTER>
-21.7659

>  <SCORE.INTER.CONST>
1

>  <SCORE.INTER.POLAR>
0

>  <SCORE.INTER.ROT>
2

>  <SCORE.INTER.SOLV>
19.0655

>  <SCORE.INTER.VDW>
-25.7991

>  <SCORE.INTER.norm>
-0.473172

>  <SCORE.INTRA>
0.511128

>  <SCORE.INTRA.DIHEDRAL>
0.136807

>  <SCORE.INTRA.DIHEDRAL.0>
4.74153

>  <SCORE.INTRA.POLAR>
0

>  <SCORE.INTRA.POLAR.0>
0

>  <SCORE.INTRA.REPUL>
0.005089

>  <SCORE.INTRA.REPUL.0>
0

>  <SCORE.INTRA.SOLV>
0.295588

>  <SCORE.INTRA.SOLV.lig_0>
-60.4375

>  <SCORE.INTRA.VDW>
0.269485

>  <SCORE.INTRA.VDW.0>
-1.83689

>  <SCORE.INTRA.norm>
0.0111115

>  <SCORE.RESTR>
0

>  <SCORE.RESTR.CAVITY>
0

>  <SCORE.RESTR.norm>
0

>  <SCORE.SYSTEM>
0

>  <SCORE.SYSTEM.CONST>
0

>  <SCORE.SYSTEM.DIHEDRAL>
0

>  <SCORE.SYSTEM.SOLV>
0

>  <SCORE.SYSTEM.norm>
0

>  <SCORE.heavy>
46

>  <SCORE.norm>
-0.462061

>  <RMSD>
5.762

$$$$
lig.pdb
 OpenBabel11021811523D
libRbt.so/2013.1/901 2013/11/27
 46 52  0  0  0  0  0  0  0  0999 V2000
  160.2952   43.1951  142.5442 P   0  0  2  0  0  0  0  0  0  0  0  0
  160.6171   43.1944  141.0657 O   0  0  0  0  0  0  0  0  0  0  0  0
  159.3020   42.1673  143.0219 O   0  0  0  0  0  0  0  0  0  0  0  0
  159.7973   44.6436  143.0333 O   0  0  0  0  0  0  0  0  0  0  0  0
  159.8859   45.7848  142.1902 C   0  0  0  0  0  0  0  0  0  0  0  0
  159.7269   47.0527  143.0131 C   0  0  1  0  0  0  0  0  0  0  0  0
  158.4119   47.5487  142.8064 O   0  0  0  0  0  0  0  0  0  0  0  0
  159.8876   46.8861  144.5188 C   0  0  1  0  0  0  0  0  0  0  0  0
  161.1588   47.3750  144.9208 O   0  0  0  0  0  0  0  0  0  0  0  0
  158.8296   47.8036  145.0896 C   0  0  1  0  0  0  0  0  0  0  0  0
  159.3805   49.1074  145.2861 O   0  0  0  0  0  0  0  0  0  0  0  0
  157.7833   47.9297  144.0206 C   0  0  2  0  0  0  0  0  0  0  0  0
  156.6819   46.9789  144.3029 N   0  0  0  0  0  0  0  0  0  0  0  0
  155.8502   46.4497  143.3888 C   0  0  0  0  0  0  0  0  0  0  0  0
  154.9482   45.6310  143.9814 N   0  0  0  0  0  0  0  0  0  0  0  0
  155.1954   45.6265  145.3035 C   0  0  0  0  0  0  0  0  0  0  0  0
  154.6159   44.9717  146.4999 C   0  0  0  0  0  0  0  0  0  0  0  0
  153.6318   44.2020  146.3854 O   0  0  0  0  0  0  0  0  0  0  0  0
  155.1767   45.2340  147.6928 N   0  0  0  0  0  0  0  0  0  0  0  0
  156.2318   46.0621  147.8105 C   0  0  0  0  0  0  0  0  0  0  0  0
  156.7582   46.2854  149.0354 N   0  0  0  0  0  0  0  0  0  0  0  0
  156.8082   46.6914  146.7614 N   0  0  0  0  0  0  0  0  0  0  0  0
  156.3424   46.5170  145.5062 C   0  0  0  0  0  0  0  0  0  0  0  0
  161.7885   47.1162  146.3947 P   0  0  2  0  0  0  0  0  0  0  0  0
  160.7585   47.4637  147.4418 O   0  0  0  0  0  0  0  0  0  0  0  0
  163.1522   47.7812  146.3913 O   0  0  0  0  0  0  0  0  0  0  0  0
  161.9762   45.5119  146.4140 O   0  0  0  0  0  0  0  0  0  0  0  0
  163.0997   44.9148  145.7678 C   0  0  0  0  0  0  0  0  0  0  0  0
  162.9037   43.4245  145.4725 C   0  0  1  0  0  0  0  0  0  0  0  0
  162.9979   42.6847  146.6917 O   0  0  0  0  0  0  0  0  0  0  0  0
  161.5631   43.0616  144.8378 C   0  0  1  0  0  0  0  0  0  0  0  0
  161.6381   42.9975  143.4142 O   0  0  0  0  0  0  0  0  0  0  0  0
  161.2776   41.6999  145.4431 C   0  0  1  0  0  0  0  0  0  0  0  0
  161.8852   40.6616  144.6693 O   0  0  0  0  0  0  0  0  0  0  0  0
  161.9547   41.7124  146.7977 C   0  0  2  0  0  0  0  0  0  0  0  0
  160.9882   42.1597  147.8311 N   0  0  0  0  0  0  0  0  0  0  0  0
  161.0432   43.3243  148.5073 C   0  0  0  0  0  0  0  0  0  0  0  0
  160.0061   43.4534  149.3808 N   0  0  0  0  0  0  0  0  0  0  0  0
  159.2525   42.3482  149.2661 C   0  0  0  0  0  0  0  0  0  0  0  0
  158.0168   41.8241  149.9016 C   0  0  0  0  0  0  0  0  0  0  0  0
  157.3868   42.4656  150.7698 O   0  0  0  0  0  0  0  0  0  0  0  0
  157.5725   40.6339  149.4942 N   0  0  0  0  0  0  0  0  0  0  0  0
  158.2091   39.9093  148.5612 C   0  0  0  0  0  0  0  0  0  0  0  0
  157.6816   38.7193  148.2372 N   0  0  0  0  0  0  0  0  0  0  0  0
  159.3434   40.3140  147.9433 N   0  0  0  0  0  0  0  0  0  0  0  0
  159.9059   41.5025  148.2471 C   0  0  0  0  0  0  0  0  0  0  0  0
  1  3  2  1  0  0  0
  1 32  1  0  0  0  0
  1  2  1  0  0  0  0
  1  4  1  0  0  0  0
  4  5  1  0  0  0  0
  6  5  1  6  0  0  0
  7  6  1  0  0  0  0
  8  6  1  0  0  0  0
  8 10  1  0  0  0  0
  8  9  1  1  0  0  0
 10 11  1  6  0  0  0
 12 13  1  1  0  0  0
 12  7  1  0  0  0  0
 12 10  1  0  0  0  0
 14 13  1  0  0  0  0
 15 16  1  0  0  0  0
 15 14  2  0  0  0  0
 16 23  2  0  0  0  0
 17 16  1  0  0  0  0
 17 19  1  0  0  0  0
 18 17  2  0  0  0  0
 19 20  2  0  0  0  0
 20 22  1  0  0  0  0
 20 21  1  0  0  0  0
 23 13  1  0  0  0  0
 23 22  1  0  0  0  0
 24 25  2  1  0  0  0
 24  9  1  0  0  0  0
 24 26  1  0  0  0  0
 27 28  1  0  0  0  0
 27 24  1  0  0  0  0
 29 30  1  1  0  0  0
 29 28  1  0  0  0  0
 31 32  1  6  0  0  0
 31 29  1  0  0  0  0
 33 34  1  6  0  0  0
 33 35  1  0  0  0  0
 33 31  1  0  0  0  0
 35 36  1  1  0  0  0
 35 30  1  0  0  0  0
 36 37  1  0  0  0  0
 38 37  2  0  0  0  0
 39 38  1  0  0  0  0
 40 41  2  0  0  0  0
 40 39  1  0  0  0  0
 42 40  1  0  0  0  0
 43 42  2  0  0  0  0
 43 45  1  0  0  0  0
 44 43  1  0  0  0  0
 45 46  1  0  0  0  0
 46 39  2  0  0  0  0
 46 36  1  0  0  0  0
M  END
>  <CHROM.1>
-38.84788924,3.32018914,159.33407995,44.47986258,145.86494433,-1.61316724
-0.38924179,2.48671577

>  <Name>
lig.pdb

>  <RI>
0

>  <Rbt.Current_Directory>
/home/itssahil/PROJECTS/Mol_Feturizer/New_Systems/rnas/4yb0

>  <Rbt.Executable>
rbdock ($Id: //depot/dev/client3/rdock/2013.1/src/exe/rbdock.cxx#4 $)

>  <Rbt.Library>
libRbt.so (2013.1, Build901 2013/11/27)

>  <Rbt.Parameter_File>
/export/apps/rDock/src/rDock_2013.1_src/data/scripts/dock_solv.prm

>  <Rbt.Receptor>
prm/pocket_docking_8.prm

>  <SCORE>
-21.1084

>  <SCORE.INTER>
-21.5702

>  <SCORE.INTER.CONST>
1

>  <SCORE.INTER.POLAR>
0

>  <SCORE.INTER.ROT>
2

>  <SCORE.INTER.SOLV>
18.8418

>  <SCORE.INTER.VDW>
-25.5941

>  <SCORE.INTER.norm>
-0.468918

>  <SCORE.INTRA>
0.46186

>  <SCORE.INTRA.DIHEDRAL>
0.108702

>  <SCORE.INTRA.DIHEDRAL.0>
4.74153

>  <SCORE.INTRA.POLAR>
0

>  <SCORE.INTRA.POLAR.0>
0

>  <SCORE.INTRA.REPUL>
0.00116048

>  <SCORE.INTRA.REPUL.0>
0

>  <SCORE.INTRA.SOLV>
0.285826

>  <SCORE.INTRA.SOLV.lig_0>
-60.4375

>  <SCORE.INTRA.VDW>
0.258794

>  <SCORE.INTRA.VDW.0>
-1.83689

>  <SCORE.INTRA.norm>
0.0100404

>  <SCORE.RESTR>
0

>  <SCORE.RESTR.CAVITY>
0

>  <SCORE.RESTR.norm>
0

>  <SCORE.SYSTEM>
0

>  <SCORE.SYSTEM.CONST>
0

>  <SCORE.SYSTEM.DIHEDRAL>
0

>  <SCORE.SYSTEM.SOLV>
0

>  <SCORE.SYSTEM.norm>
0

>  <SCORE.heavy>
46

>  <SCORE.norm>
-0.458877

>  <RMSD>
5.763

$$$$
lig.pdb
 OpenBabel11021811523D
libRbt.so/2013.1/901 2013/11/27
 46 52  0  0  0  0  0  0  0  0999 V2000
  160.3996   43.4147  142.3578 P   0  0  2  0  0  0  0  0  0  0  0  0
  160.9972   43.6857  140.9944 O   0  0  0  0  0  0  0  0  0  0  0  0
  159.3124   42.3733  142.4263 O   0  0  0  0  0  0  0  0  0  0  0  0
  159.8478   44.7655  143.0331 O   0  0  0  0  0  0  0  0  0  0  0  0
  160.1191   46.0430  142.4714 C   0  0  0  0  0  0  0  0  0  0  0  0
  159.8326   47.1314  143.4927 C   0  0  1  0  0  0  0  0  0  0  0  0
  158.5917   47.7349  143.1553 O   0  0  0  0  0  0  0  0  0  0  0  0
  159.6999   46.6629  144.9362 C   0  0  1  0  0  0  0  0  0  0  0  0
  160.8811   46.9875  145.6545 O   0  0  0  0  0  0  0  0  0  0  0  0
  158.5719   47.5110  145.4795 C   0  0  1  0  0  0  0  0  0  0  0  0
  159.1022   48.7160  146.0352 O   0  0  0  0  0  0  0  0  0  0  0  0
  157.7513   47.9061  144.2863 C   0  0  2  0  0  0  0  0  0  0  0  0
  156.5968   46.9849  144.1628 N   0  0  0  0  0  0  0  0  0  0  0  0
  155.9209   46.7233  143.0304 C   0  0  0  0  0  0  0  0  0  0  0  0
  154.9131   45.8496  143.2672 N   0  0  0  0  0  0  0  0  0  0  0  0
  154.9316   45.5367  144.5750 C   0  0  0  0  0  0  0  0  0  0  0  0
  154.1425   44.6690  145.4808 C   0  0  0  0  0  0  0  0  0  0  0  0
  153.1751   44.0050  145.0367 O   0  0  0  0  0  0  0  0  0  0  0  0
  154.4979   44.6255  146.7762 N   0  0  0  0  0  0  0  0  0  0  0  0
  155.5361   45.3413  147.2482 C   0  0  0  0  0  0  0  0  0  0  0  0
  155.8514   45.2548  148.5598 N   0  0  0  0  0  0  0  0  0  0  0  0
  156.2966   46.1517  146.4776 N   0  0  0  0  0  0  0  0  0  0  0  0
  156.0472   46.2888  145.1578 C   0  0  0  0  0  0  0  0  0  0  0  0
  161.2130   46.4074  147.1341 P   0  0  2  0  0  0  0  0  0  0  0  0
  160.0097   46.6023  148.0243 O   0  0  0  0  0  0  0  0  0  0  0  0
  162.5658   46.9787  147.5154 O   0  0  0  0  0  0  0  0  0  0  0  0
  161.3601   44.8224  146.8594 O   0  0  0  0  0  0  0  0  0  0  0  0
  162.5736   44.2990  146.3210 C   0  0  0  0  0  0  0  0  0  0  0  0
  162.4066   42.9100  145.6969 C   0  0  1  0  0  0  0  0  0  0  0  0
  162.2513   41.9407  146.7357 O   0  0  0  0  0  0  0  0  0  0  0  0
  161.2042   42.7584  144.7678 C   0  0  1  0  0  0  0  0  0  0  0  0
  161.5477   42.9712  143.3992 O   0  0  0  0  0  0  0  0  0  0  0  0
  160.7804   41.3235  145.0199 C   0  0  1  0  0  0  0  0  0  0  0  0
  161.5026   40.4237  144.1745 O   0  0  0  0  0  0  0  0  0  0  0  0
  161.1870   41.0296  146.4488 C   0  0  2  0  0  0  0  0  0  0  0  0
  160.0509   41.3212  147.3577 N   0  0  0  0  0  0  0  0  0  0  0  0
  158.7515   41.3664  147.0025 C   0  0  0  0  0  0  0  0  0  0  0  0
  157.9448   41.6459  148.0638 N   0  0  0  0  0  0  0  0  0  0  0  0
  158.7376   41.7794  149.1389 C   0  0  0  0  0  0  0  0  0  0  0  0
  158.5461   42.0880  150.5790 C   0  0  0  0  0  0  0  0  0  0  0  0
  157.4162   42.2788  151.0780 O   0  0  0  0  0  0  0  0  0  0  0  0
  159.6347   42.1330  151.3488 N   0  0  0  0  0  0  0  0  0  0  0  0
  160.8687   41.9294  150.8623 C   0  0  0  0  0  0  0  0  0  0  0  0
  161.8936   42.0122  151.7237 N   0  0  0  0  0  0  0  0  0  0  0  0
  161.1252   41.6524  149.5624 N   0  0  0  0  0  0  0  0  0  0  0  0
  160.1201   41.5664  148.6659 C   0  0  0  0  0  0  0  0  0  0  0  0
  1  3  2  6  0  0  0
  1 32  1  0  0  0  0
  1  2  1  0  0  0  0
  1  4  1  0  0  0  0
  4  5  1  0  0  0  0
  6  5  1  6  0  0  0
  7  6  1  0  0  0  0
  8  6  1  0  0  0  0
  8 10  1  0  0  0  0
  8  9  1  1  0  0  0
 10 11  1  6  0  0  0
 12 13  1  6  0  0  0
 12  7  1  0  0  0  0
 12 10  1  0  0  0  0
 14 13  1  0  0  0  0
 15 16  1  0  0  0  0
 15 14  2  0  0  0  0
 16 23  2  0  0  0  0
 17 16  1  0  0  0  0
 17 19  1  0  0  0  0
 18 17  2  0  0  0  0
 19 20  2  0  0  0  0
 20 22  1  0  0  0  0
 20 21  1  0  0  0  0
 23 13  1  0  0  0  0
 23 22  1  0  0  0  0
 24 25  2  1  0  0  0
 24  9  1  0  0  0  0
 24 26  1  0  0  0  0
 27 28  1  0  0  0  0
 27 24  1  0  0  0  0
 29 30  1  1  0  0  0
 29 28  1  0  0  0  0
 31 32  1  6  0  0  0
 31 29  1  0  0  0  0
 33 34  1  6  0  0  0
 33 35  1  0  0  0  0
 33 31  1  0  0  0  0
 35 36  1  1  0  0  0
 35 30  1  0  0  0  0
 36 37  1  0  0  0  0
 38 37  2  0  0  0  0
 39 38  1  0  0  0  0
 40 41  2  0  0  0  0
 40 39  1  0  0  0  0
 42 40  1  0  0  0  0
 43 42  2  0  0  0  0
 43 45  1  0  0  0  0
 44 43  1  0  0  0  0
 45 46  1  0  0  0  0
 46 39  2  0  0  0  0
 46 36  1  0  0  0  0
M  END
>  <CHROM.1>
-40.75463297,136.87454730,159.21224724,44.32972820,145.99727537,-2.07022604
-0.42763488,2.02708417

>  <Name>
lig.pdb

>  <RI>
0

>  <Rbt.Current_Directory>
/home/itssahil/PROJECTS/Mol_Feturizer/New_Systems/rnas/4yb0

>  <Rbt.Executable>
rbdock ($Id: //depot/dev/client3/rdock/2013.1/src/exe/rbdock.cxx#4 $)

>  <Rbt.Library>
libRbt.so (2013.1, Build901 2013/11/27)

>  <Rbt.Parameter_File>
/export/apps/rDock/src/rDock_2013.1_src/data/scripts/dock_solv.prm

>  <Rbt.Receptor>
prm/pocket_docking_4.prm

>  <SCORE>
-21.0384

>  <SCORE.INTER>
-22.8358

>  <SCORE.INTER.CONST>
1

>  <SCORE.INTER.POLAR>
0

>  <SCORE.INTER.ROT>
2

>  <SCORE.INTER.SOLV>
17.4526

>  <SCORE.INTER.VDW>
-25.9747

>  <SCORE.INTER.norm>
-0.49643

>  <SCORE.INTRA>
1.18288

>  <SCORE.INTRA.DIHEDRAL>
0.143133

>  <SCORE.INTRA.DIHEDRAL.0>
4.74153

>  <SCORE.INTRA.POLAR>
0

>  <SCORE.INTRA.POLAR.0>
0

>  <SCORE.INTRA.REPUL>
0.0335352

>  <SCORE.INTRA.REPUL.0>
0

>  <SCORE.INTRA.SOLV>
0.204018

>  <SCORE.INTRA.SOLV.lig_0>
-60.4375

>  <SCORE.INTRA.VDW>
0.841625

>  <SCORE.INTRA.VDW.0>
-1.83689

>  <SCORE.INTRA.norm>
0.0257147

>  <SCORE.RESTR>
0.614477

>  <SCORE.RESTR.CAVITY>
0.614477

>  <SCORE.RESTR.norm>
0.0133582

>  <SCORE.SYSTEM>
0

>  <SCORE.SYSTEM.CONST>
0

>  <SCORE.SYSTEM.DIHEDRAL>
0

>  <SCORE.SYSTEM.SOLV>
0

>  <SCORE.SYSTEM.norm>
0

>  <SCORE.heavy>
46

>  <SCORE.norm>
-0.457357

>  <RMSD>
5.766

$$$$
lig.pdb
 OpenBabel11021811523D
libRbt.so/2013.1/901 2013/11/27
 46 52  0  0  0  0  0  0  0  0999 V2000
  161.8635   47.4820  145.9991 P   0  0  2  0  0  0  0  0  0  0  0  0
  163.2227   48.1468  146.0094 O   0  0  0  0  0  0  0  0  0  0  0  0
  160.9060   47.8805  147.0925 O   0  0  0  0  0  0  0  0  0  0  0  0
  161.9965   45.8797  146.0039 O   0  0  0  0  0  0  0  0  0  0  0  0
  163.2500   45.2363  145.8144 C   0  0  0  0  0  0  0  0  0  0  0  0
  163.0360   43.7709  145.4733 C   0  0  1  0  0  0  0  0  0  0  0  0
  163.3155   43.0036  146.6356 O   0  0  0  0  0  0  0  0  0  0  0  0
  161.6242   43.3933  145.0431 C   0  0  1  0  0  0  0  0  0  0  0  0
  161.5850   43.2162  143.6347 O   0  0  0  0  0  0  0  0  0  0  0  0
  161.4068   42.0448  145.6922 C   0  0  1  0  0  0  0  0  0  0  0  0
  161.8356   41.0104  144.8045 O   0  0  0  0  0  0  0  0  0  0  0  0
  162.3288   42.0121  146.8764 C   0  0  2  0  0  0  0  0  0  0  0  0
  161.5704   42.3839  148.0942 N   0  0  0  0  0  0  0  0  0  0  0  0
  161.9732   43.2602  149.0310 C   0  0  0  0  0  0  0  0  0  0  0  0
  161.0526   43.3584  150.0199 N   0  0  0  0  0  0  0  0  0  0  0  0
  160.0331   42.5327  149.7236 C   0  0  0  0  0  0  0  0  0  0  0  0
  158.7410   42.1592  150.3455 C   0  0  0  0  0  0  0  0  0  0  0  0
  158.3926   42.6713  151.4365 O   0  0  0  0  0  0  0  0  0  0  0  0
  157.9718   41.2622  149.7049 N   0  0  0  0  0  0  0  0  0  0  0  0
  158.3510   40.7143  148.5349 C   0  0  0  0  0  0  0  0  0  0  0  0
  157.5346   39.8208  147.9329 N   0  0  0  0  0  0  0  0  0  0  0  0
  159.5154   41.0101  147.9140 N   0  0  0  0  0  0  0  0  0  0  0  0
  160.3824   41.8954  148.4502 C   0  0  0  0  0  0  0  0  0  0  0  0
  160.2046   43.0789  142.7911 P   0  0  2  0  0  0  0  0  0  0  0  0
  159.3180   42.0534  143.4549 O   0  0  0  0  0  0  0  0  0  0  0  0
  160.6137   42.9320  141.3375 O   0  0  0  0  0  0  0  0  0  0  0  0
  159.5197   44.5253  143.0102 O   0  0  0  0  0  0  0  0  0  0  0  0
  159.9474   45.6446  142.2352 C   0  0  0  0  0  0  0  0  0  0  0  0
  159.5599   46.9907  142.8552 C   0  0  1  0  0  0  0  0  0  0  0  0
  158.1555   47.1995  142.6918 O   0  0  0  0  0  0  0  0  0  0  0  0
  159.8561   47.1250  144.3473 C   0  0  1  0  0  0  0  0  0  0  0  0
  161.1166   47.7461  144.5949 O   0  0  0  0  0  0  0  0  0  0  0  0
  158.7048   47.9884  144.8283 C   0  0  1  0  0  0  0  0  0  0  0  0
  159.0129   49.3771  144.6779 O   0  0  0  0  0  0  0  0  0  0  0  0
  157.5518   47.6755  143.8976 C   0  0  2  0  0  0  0  0  0  0  0  0
  156.7258   46.5886  144.4794 N   0  0  0  0  0  0  0  0  0  0  0  0
  157.1261   45.7188  145.4280 C   0  0  0  0  0  0  0  0  0  0  0  0
  156.1369   44.8455  145.7657 N   0  0  0  0  0  0  0  0  0  0  0  0
  155.0628   45.1583  145.0235 C   0  0  0  0  0  0  0  0  0  0  0  0
  153.6819   44.6354  144.8645 C   0  0  0  0  0  0  0  0  0  0  0  0
  153.2489   43.6741  145.5358 O   0  0  0  0  0  0  0  0  0  0  0  0
  152.8893   45.2484  143.9838 N   0  0  0  0  0  0  0  0  0  0  0  0
  153.3047   46.2879  143.2438 C   0  0  0  0  0  0  0  0  0  0  0  0
  152.4284   46.8196  142.3786 N   0  0  0  0  0  0  0  0  0  0  0  0
  154.5487   46.8154  143.3246 N   0  0  0  0  0  0  0  0  0  0  0  0
  155.4589   46.3035  144.1796 C   0  0  0  0  0  0  0  0  0  0  0  0
  1  3  2  1  0  0  0
  1 32  1  0  0  0  0
  1  2  1  0  0  0  0
  1  4  1  0  0  0  0
  4  5  1  0  0  0  0
  6  5  1  1  0  0  0
  7  6  1  0  0  0  0
  8  6  1  0  0  0  0
  8 10  1  0  0  0  0
  8  9  1  6  0  0  0
 10 11  1  6  0  0  0
 12 13  1  1  0  0  0
 12  7  1  0  0  0  0
 12 10  1  0  0  0  0
 14 13  1  0  0  0  0
 15 16  1  0  0  0  0
 15 14  2  0  0  0  0
 16 23  2  0  0  0  0
 17 16  1  0  0  0  0
 17 19  1  0  0  0  0
 18 17  2  0  0  0  0
 19 20  2  0  0  0  0
 20 22  1  0  0  0  0
 20 21  1  0  0  0  0
 23 13  1  0  0  0  0
 23 22  1  0  0  0  0
 24 25  2  1  0  0  0
 24  9  1  0  0  0  0
 24 26  1  0  0  0  0
 27 28  1  0  0  0  0
 27 24  1  0  0  0  0
 29 30  1  1  0  0  0
 29 28  1  0  0  0  0
 31 32  1  6  0  0  0
 31 29  1  0  0  0  0
 33 34  1  6  0  0  0
 33 35  1  0  0  0  0
 33 31  1  0  0  0  0
 35 36  1  1  0  0  0
 35 30  1  0  0  0  0
 36 37  1  0  0  0  0
 38 37  2  0  0  0  0
 39 38  1  0  0  0  0
 40 41  2  0  0  0  0
 40 39  1  0  0  0  0
 42 40  1  0  0  0  0
 43 42  2  0  0  0  0
 43 45  1  0  0  0  0
 44 43  1  0  0  0  0
 45 46  1  0  0  0  0
 46 39  2  0  0  0  0
 46 36  1  0  0  0  0
M  END
>  <CHROM.1>
-18.13018343,94.89510145,159.22232762,44.60124040,145.52635633,-0.71687732
-0.08856555,-0.73759776

>  <Name>
lig.pdb

>  <RI>
0

>  <Rbt.Current_Directory>
/home/itssahil/PROJECTS/Mol_Feturizer/New_Systems/rnas/4yb0

>  <Rbt.Executable>
rbdock ($Id: //depot/dev/client3/rdock/2013.1/src/exe/rbdock.cxx#4 $)

>  <Rbt.Library>
libRbt.so (2013.1, Build901 2013/11/27)

>  <Rbt.Parameter_File>
/export/apps/rDock/src/rDock_2013.1_src/data/scripts/dock_solv.prm

>  <Rbt.Receptor>
prm/pocket_docking_7.prm

>  <SCORE>
-22.5336

>  <SCORE.INTER>
-23.3094

>  <SCORE.INTER.CONST>
1

>  <SCORE.INTER.POLAR>
0

>  <SCORE.INTER.ROT>
2

>  <SCORE.INTER.SOLV>
21.5615

>  <SCORE.INTER.VDW>
-27.6601

>  <SCORE.INTER.norm>
-0.506727

>  <SCORE.INTRA>
0.775848

>  <SCORE.INTRA.DIHEDRAL>
0.0366591

>  <SCORE.INTRA.DIHEDRAL.0>
4.74153

>  <SCORE.INTRA.POLAR>
0

>  <SCORE.INTRA.POLAR.0>
0

>  <SCORE.INTRA.REPUL>
0

>  <SCORE.INTRA.REPUL.0>
0

>  <SCORE.INTRA.SOLV>
-0.0912588

>  <SCORE.INTRA.SOLV.lig_0>
-60.4375

>  <SCORE.INTRA.VDW>
0.803148

>  <SCORE.INTRA.VDW.0>
-1.83689

>  <SCORE.INTRA.norm>
0.0168663

>  <SCORE.RESTR>
0

>  <SCORE.RESTR.CAVITY>
0

>  <SCORE.RESTR.norm>
0

>  <SCORE.SYSTEM>
0

>  <SCORE.SYSTEM.CONST>
0

>  <SCORE.SYSTEM.DIHEDRAL>
0

>  <SCORE.SYSTEM.SOLV>
0

>  <SCORE.SYSTEM.norm>
0

>  <SCORE.heavy>
46

>  <SCORE.norm>
-0.489861

>  <RMSD>
5.771

$$$$
lig.pdb
 OpenBabel11021811523D
libRbt.so/2013.1/901 2013/11/27
 46 52  0  0  0  0  0  0  0  0999 V2000
  156.5877   45.8824  146.1163 P   0  0  2  0  0  0  0  0  0  0  0  0
  155.4877   46.8272  146.5488 O   0  0  0  0  0  0  0  0  0  0  0  0
  156.2332   44.8683  145.0593 O   0  0  0  0  0  0  0  0  0  0  0  0
  157.2158   45.1020  147.3739 O   0  0  0  0  0  0  0  0  0  0  0  0
  156.8926   45.4624  148.7105 C   0  0  0  0  0  0  0  0  0  0  0  0
  157.8983   44.8506  149.6717 C   0  0  1  0  0  0  0  0  0  0  0  0
  157.2866   43.7290  150.2929 O   0  0  0  0  0  0  0  0  0  0  0  0
  159.1864   44.3378  149.0403 C   0  0  1  0  0  0  0  0  0  0  0  0
  160.2417   45.2526  149.2969 O   0  0  0  0  0  0  0  0  0  0  0  0
  159.4716   43.0650  149.8056 C   0  0  1  0  0  0  0  0  0  0  0  0
  160.2790   43.3621  150.9466 O   0  0  0  0  0  0  0  0  0  0  0  0
  158.1424   42.5970  150.3229 C   0  0  2  0  0  0  0  0  0  0  0  0
  157.5985   41.5672  149.4062 N   0  0  0  0  0  0  0  0  0  0  0  0
  157.4546   41.6997  148.0761 C   0  0  0  0  0  0  0  0  0  0  0  0
  156.9139   40.5790  147.5405 N   0  0  0  0  0  0  0  0  0  0  0  0
  156.7012   39.7017  148.5374 C   0  0  0  0  0  0  0  0  0  0  0  0
  156.1568   38.3288  148.6590 C   0  0  0  0  0  0  0  0  0  0  0  0
  155.7489   37.7177  147.6420 O   0  0  0  0  0  0  0  0  0  0  0  0
  156.1163   37.7754  149.8831 N   0  0  0  0  0  0  0  0  0  0  0  0
  156.5539   38.4360  150.9717 C   0  0  0  0  0  0  0  0  0  0  0  0
  156.4934   37.8280  152.1775 N   0  0  0  0  0  0  0  0  0  0  0  0
  157.0612   39.6890  150.9315 N   0  0  0  0  0  0  0  0  0  0  0  0
  157.1578   40.3614  149.7646 C   0  0  0  0  0  0  0  0  0  0  0  0
  161.6849   45.1799  148.5567 P   0  0  2  0  0  0  0  0  0  0  0  0
  162.2103   43.7669  148.6328 O   0  0  0  0  0  0  0  0  0  0  0  0
  162.4941   46.3430  149.0992 O   0  0  0  0  0  0  0  0  0  0  0  0
  161.2983   45.4702  147.0154 O   0  0  0  0  0  0  0  0  0  0  0  0
  161.0763   46.8086  146.5731 C   0  0  0  0  0  0  0  0  0  0  0  0
  160.2880   46.8874  145.2620 C   0  0  1  0  0  0  0  0  0  0  0  0
  161.1313   46.4898  144.1788 O   0  0  0  0  0  0  0  0  0  0  0  0
  159.0440   46.0039  145.2010 C   0  0  1  0  0  0  0  0  0  0  0  0
  157.8605   46.7092  145.5727 O   0  0  0  0  0  0  0  0  0  0  0  0
  159.0122   45.5917  143.7411 C   0  0  1  0  0  0  0  0  0  0  0  0
  158.3182   46.5630  142.9532 O   0  0  0  0  0  0  0  0  0  0  0  0
  160.4585   45.5920  143.2920 C   0  0  2  0  0  0  0  0  0  0  0  0
  161.0312   44.2336  143.4629 N   0  0  0  0  0  0  0  0  0  0  0  0
  162.1216   43.9263  144.1929 C   0  0  0  0  0  0  0  0  0  0  0  0
  162.3907   42.5913  144.1659 N   0  0  0  0  0  0  0  0  0  0  0  0
  161.4479   42.0132  143.4048 C   0  0  0  0  0  0  0  0  0  0  0  0
  161.1389   40.6351  142.9456 C   0  0  0  0  0  0  0  0  0  0  0  0
  161.8259   39.6472  143.2834 O   0  0  0  0  0  0  0  0  0  0  0  0
  160.0694   40.4718  142.1650 N   0  0  0  0  0  0  0  0  0  0  0  0
  159.2965   41.4989  141.7796 C   0  0  0  0  0  0  0  0  0  0  0  0
  158.2539   41.2222  140.9823 N   0  0  0  0  0  0  0  0  0  0  0  0
  159.5177   42.7825  142.1483 N   0  0  0  0  0  0  0  0  0  0  0  0
  160.5597   43.0996  142.9451 C   0  0  0  0  0  0  0  0  0  0  0  0
  1  3  2  6  0  0  0
  1 32  1  0  0  0  0
  1  2  1  0  0  0  0
  1  4  1  0  0  0  0
  4  5  1  0  0  0  0
  6  5  1  6  0  0  0
  7  6  1  0  0  0  0
  8  6  1  0  0  0  0
  8 10  1  0  0  0  0
  8  9  1  1  0  0  0
 10 11  1  1  0  0  0
 12 13  1  6  0  0  0
 12  7  1  0  0  0  0
 12 10  1  0  0  0  0
 14 13  1  0  0  0  0
 15 16  1  0  0  0  0
 15 14  2  0  0  0  0
 16 23  2  0  0  0  0
 17 16  1  0  0  0  0
 17 19  1  0  0  0  0
 18 17  2  0  0  0  0
 19 20  2  0  0  0  0
 20 22  1  0  0  0  0
 20 21  1  0  0  0  0
 23 13  1  0  0  0  0
 23 22  1  0  0  0  0
 24 25  2  1  0  0  0
 24  9  1  0  0  0  0
 24 26  1  0  0  0  0
 27 28  1  0  0  0  0
 27 24  1  0  0  0  0
 29 30  1  6  0  0  0
 29 28  1  0  0  0  0
 31 32  1  6  0  0  0
 31 29  1  0  0  0  0
 33 34  1  6  0  0  0
 33 35  1  0  0  0  0
 33 31  1  0  0  0  0
 35 36  1  1  0  0  0
 35 30  1  0  0  0  0
 36 37  1  0  0  0  0
 38 37  2  0  0  0  0
 39 38  1  0  0  0  0
 40 41  2  0  0  0  0
 40 39  1  0  0  0  0
 42 40  1  0  0  0  0
 43 42  2  0  0  0  0
 43 45  1  0  0  0  0
 44 43  1  0  0  0  0
 45 46  1  0  0  0  0
 46 39  2  0  0  0  0
 46 36  1  0  0  0  0
M  END
>  <CHROM.1>
62.93174667,-8.30362818,158.96253819,43.31552631,146.75760126,-0.12317301
1.16745777,0.80661872

>  <Name>
lig.pdb

>  <RI>
0

>  <Rbt.Current_Directory>
/home/itssahil/PROJECTS/Mol_Feturizer/New_Systems/rnas/4yb0

>  <Rbt.Executable>
rbdock ($Id: //depot/dev/client3/rdock/2013.1/src/exe/rbdock.cxx#4 $)

>  <Rbt.Library>
libRbt.so (2013.1, Build901 2013/11/27)

>  <Rbt.Parameter_File>
/export/apps/rDock/src/rDock_2013.1_src/data/scripts/dock_solv.prm

>  <Rbt.Receptor>
prm/pocket_docking_7.prm

>  <SCORE>
-20.2676

>  <SCORE.INTER>
-20.2771

>  <SCORE.INTER.CONST>
1

>  <SCORE.INTER.POLAR>
0

>  <SCORE.INTER.ROT>
2

>  <SCORE.INTER.SOLV>
19.0346

>  <SCORE.INTER.VDW>
-24.7963

>  <SCORE.INTER.norm>
-0.440807

>  <SCORE.INTRA>
0.00956765

>  <SCORE.INTRA.DIHEDRAL>
0.0396418

>  <SCORE.INTRA.DIHEDRAL.0>
4.74153

>  <SCORE.INTRA.POLAR>
0

>  <SCORE.INTRA.POLAR.0>
0

>  <SCORE.INTRA.REPUL>
0

>  <SCORE.INTRA.REPUL.0>
0

>  <SCORE.INTRA.SOLV>
-0.0431817

>  <SCORE.INTRA.SOLV.lig_0>
-60.4375

>  <SCORE.INTRA.VDW>
0.0113376

>  <SCORE.INTRA.VDW.0>
-1.83689

>  <SCORE.INTRA.norm>
0.000207992

>  <SCORE.RESTR>
0

>  <SCORE.RESTR.CAVITY>
0

>  <SCORE.RESTR.norm>
0

>  <SCORE.SYSTEM>
0

>  <SCORE.SYSTEM.CONST>
0

>  <SCORE.SYSTEM.DIHEDRAL>
0

>  <SCORE.SYSTEM.SOLV>
0

>  <SCORE.SYSTEM.norm>
0

>  <SCORE.heavy>
46

>  <SCORE.norm>
-0.440599

>  <RMSD>
5.779

$$$$
lig.pdb
 OpenBabel11021811523D
libRbt.so/2013.1/901 2013/11/27
 46 52  0  0  0  0  0  0  0  0999 V2000
  161.4106   46.4937  147.7315 P   0  0  2  0  0  0  0  0  0  0  0  0
  162.7201   46.7982  148.4259 O   0  0  0  0  0  0  0  0  0  0  0  0
  160.1568   46.6427  148.5541 O   0  0  0  0  0  0  0  0  0  0  0  0
  161.4194   45.0206  147.0872 O   0  0  0  0  0  0  0  0  0  0  0  0
  162.6091   44.2454  147.0186 C   0  0  0  0  0  0  0  0  0  0  0  0
  162.4279   43.1008  146.0354 C   0  0  1  0  0  0  0  0  0  0  0  0
  162.2192   41.9098  146.7810 O   0  0  0  0  0  0  0  0  0  0  0  0
  161.2396   43.2252  145.0902 C   0  0  1  0  0  0  0  0  0  0  0  0
  161.6932   43.6077  143.8000 O   0  0  0  0  0  0  0  0  0  0  0  0
  160.7101   41.8115  145.0018 C   0  0  1  0  0  0  0  0  0  0  0  0
  161.3531   41.1247  143.9262 O   0  0  0  0  0  0  0  0  0  0  0  0
  161.1440   41.1364  146.2705 C   0  0  2  0  0  0  0  0  0  0  0  0
  160.0293   41.1718  147.2465 N   0  0  0  0  0  0  0  0  0  0  0  0
  158.7296   40.9836  146.9586 C   0  0  0  0  0  0  0  0  0  0  0  0
  157.9720   41.0968  148.0759 N   0  0  0  0  0  0  0  0  0  0  0  0
  158.7906   41.3636  149.1091 C   0  0  0  0  0  0  0  0  0  0  0  0
  158.6384   41.5978  150.5644 C   0  0  0  0  0  0  0  0  0  0  0  0
  157.5011   41.5732  151.0935 O   0  0  0  0  0  0  0  0  0  0  0  0
  159.7497   41.8364  151.2817 N   0  0  0  0  0  0  0  0  0  0  0  0
  160.9679   41.8632  150.7088 C   0  0  0  0  0  0  0  0  0  0  0  0
  162.0515   42.1033  151.4804 N   0  0  0  0  0  0  0  0  0  0  0  0
  161.1773   41.6584  149.3885 N   0  0  0  0  0  0  0  0  0  0  0  0
  160.1465   41.4092  148.5529 C   0  0  0  0  0  0  0  0  0  0  0  0
  160.6987   44.0984  142.6142 P   0  0  2  0  0  0  0  0  0  0  0  0
  159.5634   43.1129  142.4799 O   0  0  0  0  0  0  0  0  0  0  0  0
  161.5882   44.4295  141.4305 O   0  0  0  0  0  0  0  0  0  0  0  0
  160.0849   45.4642  143.2203 O   0  0  0  0  0  0  0  0  0  0  0  0
  160.8391   46.6743  143.1647 C   0  0  0  0  0  0  0  0  0  0  0  0
  160.3521   47.7343  144.1576 C   0  0  1  0  0  0  0  0  0  0  0  0
  159.1170   48.2842  143.6940 O   0  0  0  0  0  0  0  0  0  0  0  0
  160.1050   47.2268  145.5765 C   0  0  1  0  0  0  0  0  0  0  0  0
  161.2347   47.4230  146.4259 O   0  0  0  0  0  0  0  0  0  0  0  0
  158.9221   48.0678  146.0187 C   0  0  1  0  0  0  0  0  0  0  0  0
  159.3610   49.3095  146.5769 O   0  0  0  0  0  0  0  0  0  0  0  0
  158.1580   48.3849  144.7501 C   0  0  2  0  0  0  0  0  0  0  0  0
  157.1042   47.3621  144.5372 N   0  0  0  0  0  0  0  0  0  0  0  0
  156.5450   47.0442  143.3528 C   0  0  0  0  0  0  0  0  0  0  0  0
  155.6152   46.0569  143.4792 N   0  0  0  0  0  0  0  0  0  0  0  0
  155.5722   45.7181  144.7775 C   0  0  0  0  0  0  0  0  0  0  0  0
  154.8038   44.7563  145.6083 C   0  0  0  0  0  0  0  0  0  0  0  0
  153.9562   43.9784  145.1201 O   0  0  0  0  0  0  0  0  0  0  0  0
  155.0657   44.7265  146.9161 N   0  0  0  0  0  0  0  0  0  0  0  0
  155.9704   45.5366  147.4872 C   0  0  0  0  0  0  0  0  0  0  0  0
  156.1435   45.4314  148.8132 N   0  0  0  0  0  0  0  0  0  0  0  0
  156.7030   46.4439  146.8001 N   0  0  0  0  0  0  0  0  0  0  0  0
  156.5523   46.5818  145.4661 C   0  0  0  0  0  0  0  0  0  0  0  0
  1  3  2  1  0  0  0
  1 32  1  0  0  0  0
  1  2  1  0  0  0  0
  1  4  1  0  0  0  0
  4  5  1  0  0  0  0
  6  5  1  1  0  0  0
  7  6  1  0  0  0  0
  8  6  1  0  0  0  0
  8 10  1  0  0  0  0
  8  9  1  6  0  0  0
 10 11  1  6  0  0  0
 12 13  1  1  0  0  0
 12  7  1  0  0  0  0
 12 10  1  0  0  0  0
 14 13  1  0  0  0  0
 15 16  1  0  0  0  0
 15 14  2  0  0  0  0
 16 23  2  0  0  0  0
 17 16  1  0  0  0  0
 17 19  1  0  0  0  0
 18 17  2  0  0  0  0
 19 20  2  0  0  0  0
 20 22  1  0  0  0  0
 20 21  1  0  0  0  0
 23 13  1  0  0  0  0
 23 22  1  0  0  0  0
 24 25  2  6  0  0  0
 24  9  1  0  0  0  0
 24 26  1  0  0  0  0
 27 28  1  0  0  0  0
 27 24  1  0  0  0  0
 29 30  1  6  0  0  0
 29 28  1  0  0  0  0
 31 32  1  1  0  0  0
 31 29  1  0  0  0  0
 33 34  1  6  0  0  0
 33 35  1  0  0  0  0
 33 31  1  0  0  0  0
 35 36  1  6  0  0  0
 35 30  1  0  0  0  0
 36 37  1  0  0  0  0
 38 37  2  0  0  0  0
 39 38  1  0  0  0  0
 40 41  2  0  0  0  0
 40 39  1  0  0  0  0
 42 40  1  0  0  0  0
 43 42  2  0  0  0  0
 43 45  1  0  0  0  0
 44 43  1  0  0  0  0
 45 46  1  0  0  0  0
 46 39  2  0  0  0  0
 46 36  1  0  0  0  0
M  END
>  <CHROM.1>
155.24117652,-41.61056214,159.47531370,44.54363798,146.25367844,-1.27897875
0.41510161,-0.92280809

>  <Name>
lig.pdb

>  <RI>
0

>  <Rbt.Current_Directory>
/home/itssahil/PROJECTS/Mol_Feturizer/New_Systems/rnas/4yb0

>  <Rbt.Executable>
rbdock ($Id: //depot/dev/client3/rdock/2013.1/src/exe/rbdock.cxx#4 $)

>  <Rbt.Library>
libRbt.so (2013.1, Build901 2013/11/27)

>  <Rbt.Parameter_File>
/export/apps/rDock/src/rDock_2013.1_src/data/scripts/dock_solv.prm

>  <Rbt.Receptor>
prm/pocket_docking_8.prm

>  <SCORE>
-19.5976

>  <SCORE.INTER>
-20.4236

>  <SCORE.INTER.CONST>
1

>  <SCORE.INTER.POLAR>
0

>  <SCORE.INTER.ROT>
2

>  <SCORE.INTER.SOLV>
14.2614

>  <SCORE.INTER.VDW>
-23.3029

>  <SCORE.INTER.norm>
-0.443992

>  <SCORE.INTRA>
0.826022

>  <SCORE.INTRA.DIHEDRAL>
-0.0338024

>  <SCORE.INTRA.DIHEDRAL.0>
4.74153

>  <SCORE.INTRA.POLAR>
0

>  <SCORE.INTRA.POLAR.0>
0

>  <SCORE.INTRA.REPUL>
0.0545937

>  <SCORE.INTRA.REPUL.0>
0

>  <SCORE.INTRA.SOLV>
0.363984

>  <SCORE.INTRA.SOLV.lig_0>
-60.4375

>  <SCORE.INTRA.VDW>
0.387963

>  <SCORE.INTRA.VDW.0>
-1.83689

>  <SCORE.INTRA.norm>
0.017957

>  <SCORE.RESTR>
0

>  <SCORE.RESTR.CAVITY>
0

>  <SCORE.RESTR.norm>
0

>  <SCORE.SYSTEM>
0

>  <SCORE.SYSTEM.CONST>
0

>  <SCORE.SYSTEM.DIHEDRAL>
0

>  <SCORE.SYSTEM.SOLV>
0

>  <SCORE.SYSTEM.norm>
0

>  <SCORE.heavy>
46

>  <SCORE.norm>
-0.426035

>  <RMSD>
5.786

$$$$
lig.pdb
 OpenBabel11021811523D
libRbt.so/2013.1/901 2013/11/27
 46 52  0  0  0  0  0  0  0  0999 V2000
  161.4992   46.4726  147.7014 P   0  0  2  0  0  0  0  0  0  0  0  0
  162.8195   46.7821  148.3726 O   0  0  0  0  0  0  0  0  0  0  0  0
  160.2600   46.6106  148.5479 O   0  0  0  0  0  0  0  0  0  0  0  0
  161.5047   45.0023  147.0509 O   0  0  0  0  0  0  0  0  0  0  0  0
  162.6976   44.2346  146.9567 C   0  0  0  0  0  0  0  0  0  0  0  0
  162.5048   43.0930  145.9722 C   0  0  1  0  0  0  0  0  0  0  0  0
  162.3172   41.8977  146.7165 O   0  0  0  0  0  0  0  0  0  0  0  0
  161.2984   43.2141  145.0499 C   0  0  1  0  0  0  0  0  0  0  0  0
  161.7255   43.6047  143.7531 O   0  0  0  0  0  0  0  0  0  0  0  0
  160.7758   41.7976  144.9654 C   0  0  1  0  0  0  0  0  0  0  0  0
  161.4027   41.1192  143.8751 O   0  0  0  0  0  0  0  0  0  0  0  0
  161.2373   41.1199  146.2228 C   0  0  2  0  0  0  0  0  0  0  0  0
  160.1408   41.1445  147.2197 N   0  0  0  0  0  0  0  0  0  0  0  0
  158.8279   41.0620  146.9424 C   0  0  0  0  0  0  0  0  0  0  0  0
  158.0947   41.1301  148.0794 N   0  0  0  0  0  0  0  0  0  0  0  0
  158.9430   41.2597  149.1150 C   0  0  0  0  0  0  0  0  0  0  0  0
  158.8263   41.3826  150.5872 C   0  0  0  0  0  0  0  0  0  0  0  0
  157.6972   41.3856  151.1341 O   0  0  0  0  0  0  0  0  0  0  0  0
  159.9605   41.4917  151.3000 N   0  0  0  0  0  0  0  0  0  0  0  0
  161.1698   41.4895  150.7080 C   0  0  0  0  0  0  0  0  0  0  0  0
  162.2772   41.5974  151.4758 N   0  0  0  0  0  0  0  0  0  0  0  0
  161.3472   41.3811  149.3718 N   0  0  0  0  0  0  0  0  0  0  0  0
  160.2911   41.2661  148.5385 C   0  0  0  0  0  0  0  0  0  0  0  0
  160.7061   44.0943  142.5882 P   0  0  2  0  0  0  0  0  0  0  0  0
  159.5744   43.1024  142.4709 O   0  0  0  0  0  0  0  0  0  0  0  0
  161.5713   44.4357  141.3895 O   0  0  0  0  0  0  0  0  0  0  0  0
  160.0955   45.4538  143.2114 O   0  0  0  0  0  0  0  0  0  0  0  0
  160.8413   46.6687  143.1470 C   0  0  0  0  0  0  0  0  0  0  0  0
  160.3667   47.7216  144.1533 C   0  0  1  0  0  0  0  0  0  0  0  0
  159.1199   48.2659  143.7152 O   0  0  0  0  0  0  0  0  0  0  0  0
  160.1492   47.2067  145.5744 C   0  0  1  0  0  0  0  0  0  0  0  0
  161.2934   47.4063  146.4033 O   0  0  0  0  0  0  0  0  0  0  0  0
  158.9697   48.0387  146.0421 C   0  0  1  0  0  0  0  0  0  0  0  0
  159.4115   49.2807  146.5973 O   0  0  0  0  0  0  0  0  0  0  0  0
  158.1802   48.3564  144.7894 C   0  0  2  0  0  0  0  0  0  0  0  0
  157.1287   47.3281  144.5918 N   0  0  0  0  0  0  0  0  0  0  0  0
  156.5998   46.9620  143.4074 C   0  0  0  0  0  0  0  0  0  0  0  0
  155.6635   45.9832  143.5506 N   0  0  0  0  0  0  0  0  0  0  0  0
  155.5850   45.6995  144.8604 C   0  0  0  0  0  0  0  0  0  0  0  0
  154.7915   44.7756  145.7103 C   0  0  0  0  0  0  0  0  0  0  0  0
  153.9543   43.9798  145.2329 O   0  0  0  0  0  0  0  0  0  0  0  0
  155.0186   44.8003  147.0246 N   0  0  0  0  0  0  0  0  0  0  0  0
  155.9108   45.6315  147.5850 C   0  0  0  0  0  0  0  0  0  0  0  0
  156.0485   45.5820  148.9183 N   0  0  0  0  0  0  0  0  0  0  0  0
  156.6646   46.5073  146.8799 N   0  0  0  0  0  0  0  0  0  0  0  0
  156.5496   46.5891  145.5377 C   0  0  0  0  0  0  0  0  0  0  0  0
  1  3  2  1  0  0  0
  1 32  1  0  0  0  0
  1  2  1  0  0  0  0
  1  4  1  0  0  0  0
  4  5  1  0  0  0  0
  6  5  1  1  0  0  0
  7  6  1  0  0  0  0
  8  6  1  0  0  0  0
  8 10  1  0  0  0  0
  8  9  1  6  0  0  0
 10 11  1  6  0  0  0
 12 13  1  1  0  0  0
 12  7  1  0  0  0  0
 12 10  1  0  0  0  0
 14 13  1  0  0  0  0
 15 16  1  0  0  0  0
 15 14  2  0  0  0  0
 16 23  2  0  0  0  0
 17 16  1  0  0  0  0
 17 19  1  0  0  0  0
 18 17  2  0  0  0  0
 19 20  2  0  0  0  0
 20 22  1  0  0  0  0
 20 21  1  0  0  0  0
 23 13  1  0  0  0  0
 23 22  1  0  0  0  0
 24 25  2  6  0  0  0
 24  9  1  0  0  0  0
 24 26  1  0  0  0  0
 27 28  1  0  0  0  0
 27 24  1  0  0  0  0
 29 30  1  6  0  0  0
 29 28  1  0  0  0  0
 31 32  1  1  0  0  0
 31 29  1  0  0  0  0
 33 34  1  6  0  0  0
 33 35  1  0  0  0  0
 33 31  1  0  0  0  0
 35 36  1  6  0  0  0
 35 30  1  0  0  0  0
 36 37  1  0  0  0  0
 38 37  2  0  0  0  0
 39 38  1  0  0  0  0
 40 41  2  0  0  0  0
 40 39  1  0  0  0  0
 42 40  1  0  0  0  0
 43 42  2  0  0  0  0
 43 45  1  0  0  0  0
 44 43  1  0  0  0  0
 45 46  1  0  0  0  0
 46 39  2  0  0  0  0
 46 36  1  0  0  0  0
M  END
>  <CHROM.1>
149.28824706,-37.86677378,159.53702193,44.49879947,146.25888456,-1.24682174
0.42631345,-0.90930026

>  <Name>
lig.pdb

>  <RI>
0

>  <Rbt.Current_Directory>
/home/itssahil/PROJECTS/Mol_Feturizer/New_Systems/rnas/4yb0

>  <Rbt.Executable>
rbdock ($Id: //depot/dev/client3/rdock/2013.1/src/exe/rbdock.cxx#4 $)

>  <Rbt.Library>
libRbt.so (2013.1, Build901 2013/11/27)

>  <Rbt.Parameter_File>
/export/apps/rDock/src/rDock_2013.1_src/data/scripts/dock_solv.prm

>  <Rbt.Receptor>
prm/pocket_docking_8.prm

>  <SCORE>
-19.7878

>  <SCORE.INTER>
-20.8037

>  <SCORE.INTER.CONST>
1

>  <SCORE.INTER.POLAR>
0

>  <SCORE.INTER.ROT>
2

>  <SCORE.INTER.SOLV>
15.0767

>  <SCORE.INTER.VDW>
-23.828

>  <SCORE.INTER.norm>
-0.452254

>  <SCORE.INTRA>
1.01588

>  <SCORE.INTRA.DIHEDRAL>
-0.0417627

>  <SCORE.INTRA.DIHEDRAL.0>
4.74153

>  <SCORE.INTRA.POLAR>
0

>  <SCORE.INTRA.POLAR.0>
0

>  <SCORE.INTRA.REPUL>
0.0764598

>  <SCORE.INTRA.REPUL.0>
0

>  <SCORE.INTRA.SOLV>
0.275698

>  <SCORE.INTRA.SOLV.lig_0>
-60.4375

>  <SCORE.INTRA.VDW>
0.516612

>  <SCORE.INTRA.VDW.0>
-1.83689

>  <SCORE.INTRA.norm>
0.0220843

>  <SCORE.RESTR>
0

>  <SCORE.RESTR.CAVITY>
0

>  <SCORE.RESTR.norm>
0

>  <SCORE.SYSTEM>
0

>  <SCORE.SYSTEM.CONST>
0

>  <SCORE.SYSTEM.DIHEDRAL>
0

>  <SCORE.SYSTEM.SOLV>
0

>  <SCORE.SYSTEM.norm>
0

>  <SCORE.heavy>
46

>  <SCORE.norm>
-0.43017

>  <RMSD>
5.810

$$$$
lig.pdb
 OpenBabel11021811523D
libRbt.so/2013.1/901 2013/11/27
 46 52  0  0  0  0  0  0  0  0999 V2000
  161.5630   46.5235  147.6450 P   0  0  2  0  0  0  0  0  0  0  0  0
  162.8891   46.8160  148.3126 O   0  0  0  0  0  0  0  0  0  0  0  0
  160.3263   46.7024  148.4874 O   0  0  0  0  0  0  0  0  0  0  0  0
  161.5377   45.0425  147.0195 O   0  0  0  0  0  0  0  0  0  0  0  0
  162.7139   44.2479  146.9400 C   0  0  0  0  0  0  0  0  0  0  0  0
  162.4976   43.0941  145.9747 C   0  0  1  0  0  0  0  0  0  0  0  0
  162.2836   41.9160  146.7390 O   0  0  0  0  0  0  0  0  0  0  0  0
  161.2950   43.2255  145.0488 C   0  0  1  0  0  0  0  0  0  0  0  0
  161.7317   43.5847  143.7462 O   0  0  0  0  0  0  0  0  0  0  0  0
  160.7422   41.8192  144.9877 C   0  0  1  0  0  0  0  0  0  0  0  0
  161.3554   41.1091  143.9099 O   0  0  0  0  0  0  0  0  0  0  0  0
  161.1878   41.1533  146.2571 C   0  0  2  0  0  0  0  0  0  0  0  0
  160.0911   41.2184  147.2519 N   0  0  0  0  0  0  0  0  0  0  0  0
  158.8016   40.9192  147.0170 C   0  0  0  0  0  0  0  0  0  0  0  0
  158.0586   41.0987  148.1355 N   0  0  0  0  0  0  0  0  0  0  0  0
  158.8766   41.5223  149.1154 C   0  0  0  0  0  0  0  0  0  0  0  0
  158.7358   41.8952  150.5427 C   0  0  0  0  0  0  0  0  0  0  0  0
  157.6124   41.8531  151.0996 O   0  0  0  0  0  0  0  0  0  0  0  0
  159.8419   42.2766  151.2041 N   0  0  0  0  0  0  0  0  0  0  0  0
  161.0451   42.3216  150.6013 C   0  0  0  0  0  0  0  0  0  0  0  0
  162.1244   42.7083  151.3174 N   0  0  0  0  0  0  0  0  0  0  0  0
  161.2434   41.9953  149.3040 N   0  0  0  0  0  0  0  0  0  0  0  0
  160.2162   41.5963  148.5239 C   0  0  0  0  0  0  0  0  0  0  0  0
  160.7242   44.0762  142.5717 P   0  0  2  0  0  0  0  0  0  0  0  0
  159.5716   43.1070  142.4697 O   0  0  0  0  0  0  0  0  0  0  0  0
  161.5977   44.3785  141.3686 O   0  0  0  0  0  0  0  0  0  0  0  0
  160.1423   45.4588  143.1710 O   0  0  0  0  0  0  0  0  0  0  0  0
  160.9141   46.6562  143.0869 C   0  0  0  0  0  0  0  0  0  0  0  0
  160.4612   47.7360  144.0746 C   0  0  1  0  0  0  0  0  0  0  0  0
  159.2268   48.2994  143.6256 O   0  0  0  0  0  0  0  0  0  0  0  0
  160.2312   47.2501  145.5040 C   0  0  1  0  0  0  0  0  0  0  0  0
  161.3786   47.4391  146.3309 O   0  0  0  0  0  0  0  0  0  0  0  0
  159.0694   48.1151  145.9559 C   0  0  1  0  0  0  0  0  0  0  0  0
  159.5372   49.3565  146.4905 O   0  0  0  0  0  0  0  0  0  0  0  0
  158.2882   48.4283  144.6969 C   0  0  2  0  0  0  0  0  0  0  0  0
  157.2150   47.4196  144.5153 N   0  0  0  0  0  0  0  0  0  0  0  0
  156.6828   47.0415  143.3362 C   0  0  0  0  0  0  0  0  0  0  0  0
  155.7246   46.0866  143.4949 N   0  0  0  0  0  0  0  0  0  0  0  0
  155.6349   45.8310  144.8097 C   0  0  0  0  0  0  0  0  0  0  0  0
  154.8179   44.9418  145.6745 C   0  0  0  0  0  0  0  0  0  0  0  0
  153.9652   44.1552  145.2095 O   0  0  0  0  0  0  0  0  0  0  0  0
  155.0405   44.9878  146.9890 N   0  0  0  0  0  0  0  0  0  0  0  0
  155.9487   45.8102  147.5365 C   0  0  0  0  0  0  0  0  0  0  0  0
  156.0802   45.7844  148.8711 N   0  0  0  0  0  0  0  0  0  0  0  0
  156.7242   46.6550  146.8173 N   0  0  0  0  0  0  0  0  0  0  0  0
  156.6162   46.7125  145.4733 C   0  0  0  0  0  0  0  0  0  0  0  0
  1  3  2  1  0  0  0
  1 32  1  0  0  0  0
  1  2  1  0  0  0  0
  1  4  1  0  0  0  0
  4  5  1  0  0  0  0
  6  5  1  1  0  0  0
  7  6  1  0  0  0  0
  8  6  1  0  0  0  0
  8 10  1  0  0  0  0
  8  9  1  6  0  0  0
 10 11  1  6  0  0  0
 12 13  1  1  0  0  0
 12  7  1  0  0  0  0
 12 10  1  0  0  0  0
 14 13  1  0  0  0  0
 15 16  1  0  0  0  0
 15 14  2  0  0  0  0
 16 23  2  0  0  0  0
 17 16  1  0  0  0  0
 17 19  1  0  0  0  0
 18 17  2  0  0  0  0
 19 20  2  0  0  0  0
 20 22  1  0  0  0  0
 20 21  1  0  0  0  0
 23 13  1  0  0  0  0
 23 22  1  0  0  0  0
 24 25  2  6  0  0  0
 24  9  1  0  0  0  0
 24 26  1  0  0  0  0
 27 28  1  0  0  0  0
 27 24  1  0  0  0  0
 29 30  1  6  0  0  0
 29 28  1  0  0  0  0
 31 32  1  1  0  0  0
 31 29  1  0  0  0  0
 33 34  1  6  0  0  0
 33 35  1  0  0  0  0
 33 31  1  0  0  0  0
 35 36  1  6  0  0  0
 35 30  1  0  0  0  0
 36 37  1  0  0  0  0
 38 37  2  0  0  0  0
 39 38  1  0  0  0  0
 40 41  2  0  0  0  0
 40 39  1  0  0  0  0
 42 40  1  0  0  0  0
 43 42  2  0  0  0  0
 43 45  1  0  0  0  0
 44 43  1  0  0  0  0
 45 46  1  0  0  0  0
 46 39  2  0  0  0  0
 46 36  1  0  0  0  0
M  END
>  <CHROM.1>
162.16718823,-37.62883404,159.55160863,44.63772944,146.22038248,-1.24438304
0.46000951,-0.96227182

>  <Name>
lig.pdb

>  <RI>
0

>  <Rbt.Current_Directory>
/home/itssahil/PROJECTS/Mol_Feturizer/New_Systems/rnas/4yb0

>  <Rbt.Executable>
rbdock ($Id: //depot/dev/client3/rdock/2013.1/src/exe/rbdock.cxx#4 $)

>  <Rbt.Library>
libRbt.so (2013.1, Build901 2013/11/27)

>  <Rbt.Parameter_File>
/export/apps/rDock/src/rDock_2013.1_src/data/scripts/dock_solv.prm

>  <Rbt.Receptor>
prm/pocket_docking_8.prm

>  <SCORE>
-19.6196

>  <SCORE.INTER>
-19.9539

>  <SCORE.INTER.CONST>
1

>  <SCORE.INTER.POLAR>
0

>  <SCORE.INTER.ROT>
2

>  <SCORE.INTER.SOLV>
14.2446

>  <SCORE.INTER.VDW>
-22.9841

>  <SCORE.INTER.norm>
-0.433779

>  <SCORE.INTRA>
0.334222

>  <SCORE.INTRA.DIHEDRAL>
-0.0325625

>  <SCORE.INTRA.DIHEDRAL.0>
4.74153

>  <SCORE.INTRA.POLAR>
0

>  <SCORE.INTRA.POLAR.0>
0

>  <SCORE.INTRA.REPUL>
0.0215299

>  <SCORE.INTRA.REPUL.0>
0

>  <SCORE.INTRA.SOLV>
0.387767

>  <SCORE.INTRA.SOLV.lig_0>
-60.4375

>  <SCORE.INTRA.VDW>
0.0489696

>  <SCORE.INTRA.VDW.0>
-1.83689

>  <SCORE.INTRA.norm>
0.00726569

>  <SCORE.RESTR>
0

>  <SCORE.RESTR.CAVITY>
0

>  <SCORE.RESTR.norm>
0

>  <SCORE.SYSTEM>
0

>  <SCORE.SYSTEM.CONST>
0

>  <SCORE.SYSTEM.DIHEDRAL>
0

>  <SCORE.SYSTEM.SOLV>
0

>  <SCORE.SYSTEM.norm>
0

>  <SCORE.heavy>
46

>  <SCORE.norm>
-0.426514

>  <RMSD>
5.823

$$$$
lig.pdb
 OpenBabel11021811523D
libRbt.so/2013.1/901 2013/11/27
 46 52  0  0  0  0  0  0  0  0999 V2000
  161.4768   46.5248  147.6464 P   0  0  2  0  0  0  0  0  0  0  0  0
  162.8006   46.8306  148.3124 O   0  0  0  0  0  0  0  0  0  0  0  0
  160.2378   46.7119  148.4837 O   0  0  0  0  0  0  0  0  0  0  0  0
  161.4570   45.0351  147.0418 O   0  0  0  0  0  0  0  0  0  0  0  0
  162.6357   44.2429  146.9759 C   0  0  0  0  0  0  0  0  0  0  0  0
  162.4247   43.0750  146.0266 C   0  0  1  0  0  0  0  0  0  0  0  0
  162.2127   41.9071  146.8070 O   0  0  0  0  0  0  0  0  0  0  0  0
  161.2236   43.1897  145.0966 C   0  0  1  0  0  0  0  0  0  0  0  0
  161.6619   43.5318  143.7899 O   0  0  0  0  0  0  0  0  0  0  0  0
  160.6751   41.7811  145.0541 C   0  0  1  0  0  0  0  0  0  0  0  0
  161.2926   41.0576  143.9877 O   0  0  0  0  0  0  0  0  0  0  0  0
  161.1201   41.1345  146.3337 C   0  0  2  0  0  0  0  0  0  0  0  0
  160.0211   41.2103  147.3253 N   0  0  0  0  0  0  0  0  0  0  0  0
  158.7360   40.8883  147.0967 C   0  0  0  0  0  0  0  0  0  0  0  0
  157.9892   41.0864  148.2094 N   0  0  0  0  0  0  0  0  0  0  0  0
  158.8001   41.5454  149.1792 C   0  0  0  0  0  0  0  0  0  0  0  0
  158.6524   41.9526  150.5963 C   0  0  0  0  0  0  0  0  0  0  0  0
  157.5288   41.9099  151.1529 O   0  0  0  0  0  0  0  0  0  0  0  0
  159.7524   42.3652  151.2491 N   0  0  0  0  0  0  0  0  0  0  0  0
  160.9558   42.4107  150.6467 C   0  0  0  0  0  0  0  0  0  0  0  0
  162.0289   42.8297  151.3539 N   0  0  0  0  0  0  0  0  0  0  0  0
  161.1602   42.0542  149.3583 N   0  0  0  0  0  0  0  0  0  0  0  0
  160.1394   41.6220  148.5875 C   0  0  0  0  0  0  0  0  0  0  0  0
  160.6554   44.0037  142.6065 P   0  0  2  0  0  0  0  0  0  0  0  0
  159.5058   43.0297  142.5159 O   0  0  0  0  0  0  0  0  0  0  0  0
  161.5304   44.2916  141.4010 O   0  0  0  0  0  0  0  0  0  0  0  0
  160.0683   45.3929  143.1851 O   0  0  0  0  0  0  0  0  0  0  0  0
  160.8367   46.5913  143.0857 C   0  0  0  0  0  0  0  0  0  0  0  0
  160.3786   47.6836  144.0571 C   0  0  1  0  0  0  0  0  0  0  0  0
  159.1435   48.2369  143.5978 O   0  0  0  0  0  0  0  0  0  0  0  0
  160.1472   47.2172  145.4927 C   0  0  1  0  0  0  0  0  0  0  0  0
  161.2924   47.4213  146.3192 O   0  0  0  0  0  0  0  0  0  0  0  0
  158.9820   48.0850  145.9300 C   0  0  1  0  0  0  0  0  0  0  0  0
  159.4451   49.3352  146.4480 O   0  0  0  0  0  0  0  0  0  0  0  0
  158.2024   48.3781  144.6652 C   0  0  2  0  0  0  0  0  0  0  0  0
  157.1325   47.3638  144.4958 N   0  0  0  0  0  0  0  0  0  0  0  0
  156.5589   47.0138  143.3274 C   0  0  0  0  0  0  0  0  0  0  0  0
  155.6165   46.0448  143.4950 N   0  0  0  0  0  0  0  0  0  0  0  0
  155.5798   45.7510  144.8044 C   0  0  0  0  0  0  0  0  0  0  0  0
  154.8051   44.8292  145.6737 C   0  0  0  0  0  0  0  0  0  0  0  0
  153.9426   44.0472  145.2192 O   0  0  0  0  0  0  0  0  0  0  0  0
  155.0776   44.8402  146.9796 N   0  0  0  0  0  0  0  0  0  0  0  0
  155.9984   45.6562  147.5155 C   0  0  0  0  0  0  0  0  0  0  0  0
  156.1813   45.5938  148.8429 N   0  0  0  0  0  0  0  0  0  0  0  0
  156.7378   46.5291  146.7919 N   0  0  0  0  0  0  0  0  0  0  0  0
  156.5777   46.6235  145.4552 C   0  0  0  0  0  0  0  0  0  0  0  0
  1  3  2  1  0  0  0
  1 32  1  0  0  0  0
  1  2  1  0  0  0  0
  1  4  1  0  0  0  0
  4  5  1  0  0  0  0
  6  5  1  1  0  0  0
  7  6  1  0  0  0  0
  8  6  1  0  0  0  0
  8 10  1  0  0  0  0
  8  9  1  6  0  0  0
 10 11  1  6  0  0  0
 12 13  1  1  0  0  0
 12  7  1  0  0  0  0
 12 10  1  0  0  0  0
 14 13  1  0  0  0  0
 15 16  1  0  0  0  0
 15 14  2  0  0  0  0
 16 23  2  0  0  0  0
 17 16  1  0  0  0  0
 17 19  1  0  0  0  0
 18 17  2  0  0  0  0
 19 20  2  0  0  0  0
 20 22  1  0  0  0  0
 20 21  1  0  0  0  0
 23 13  1  0  0  0  0
 23 22  1  0  0  0  0
 24 25  2  6  0  0  0
 24  9  1  0  0  0  0
 24 26  1  0  0  0  0
 27 28  1  0  0  0  0
 27 24  1  0  0  0  0
 29 30  1  6  0  0  0
 29 28  1  0  0  0  0
 31 32  1  1  0  0  0
 31 29  1  0  0  0  0
 33 34  1  6  0  0  0
 33 35  1  0  0  0  0
 33 31  1  0  0  0  0
 35 36  1  6  0  0  0
 35 30  1  0  0  0  0
 36 37  1  0  0  0  0
 38 37  2  0  0  0  0
 39 38  1  0  0  0  0
 40 41  2  0  0  0  0
 40 39  1  0  0  0  0
 42 40  1  0  0  0  0
 43 42  2  0  0  0  0
 43 45  1  0  0  0  0
 44 43  1  0  0  0  0
 45 46  1  0  0  0  0
 46 39  2  0  0  0  0
 46 36  1  0  0  0  0
M  END
>  <CHROM.1>
163.04038714,-41.01713046,159.48556612,44.60464554,146.24104279,-1.26423842
0.44850309,-0.97502514

>  <Name>
lig.pdb

>  <RI>
0

>  <Rbt.Current_Directory>
/home/itssahil/PROJECTS/Mol_Feturizer/New_Systems/rnas/4yb0

>  <Rbt.Executable>
rbdock ($Id: //depot/dev/client3/rdock/2013.1/src/exe/rbdock.cxx#4 $)

>  <Rbt.Library>
libRbt.so (2013.1, Build901 2013/11/27)

>  <Rbt.Parameter_File>
/export/apps/rDock/src/rDock_2013.1_src/data/scripts/dock_solv.prm

>  <Rbt.Receptor>
prm/pocket_docking_6.prm

>  <SCORE>
-19.7366

>  <SCORE.INTER>
-19.9959

>  <SCORE.INTER.CONST>
1

>  <SCORE.INTER.POLAR>
0

>  <SCORE.INTER.ROT>
2

>  <SCORE.INTER.SOLV>
14.0871

>  <SCORE.INTER.VDW>
-22.9596

>  <SCORE.INTER.norm>
-0.434693

>  <SCORE.INTRA>
0.259337

>  <SCORE.INTRA.DIHEDRAL>
-0.0260122

>  <SCORE.INTRA.DIHEDRAL.0>
4.74153

>  <SCORE.INTRA.POLAR>
0

>  <SCORE.INTRA.POLAR.0>
0

>  <SCORE.INTRA.REPUL>
0.00683979

>  <SCORE.INTRA.REPUL.0>
0

>  <SCORE.INTRA.SOLV>
0.429262

>  <SCORE.INTRA.SOLV.lig_0>
-60.4375

>  <SCORE.INTRA.VDW>
0.0235134

>  <SCORE.INTRA.VDW.0>
-1.83689

>  <SCORE.INTRA.norm>
0.00563777

>  <SCORE.RESTR>
0

>  <SCORE.RESTR.CAVITY>
0

>  <SCORE.RESTR.norm>
0

>  <SCORE.SYSTEM>
0

>  <SCORE.SYSTEM.CONST>
0

>  <SCORE.SYSTEM.DIHEDRAL>
0

>  <SCORE.SYSTEM.SOLV>
0

>  <SCORE.SYSTEM.norm>
0

>  <SCORE.heavy>
46

>  <SCORE.norm>
-0.429056

>  <RMSD>
5.824

$$$$
lig.pdb
 OpenBabel11021811523D
libRbt.so/2013.1/901 2013/11/27
 46 52  0  0  0  0  0  0  0  0999 V2000
  161.5331   46.5405  147.5833 P   0  0  2  0  0  0  0  0  0  0  0  0
  162.8616   46.8505  148.2379 O   0  0  0  0  0  0  0  0  0  0  0  0
  160.3006   46.7267  148.4304 O   0  0  0  0  0  0  0  0  0  0  0  0
  161.5116   45.0495  146.9819 O   0  0  0  0  0  0  0  0  0  0  0  0
  162.6914   44.2598  146.9080 C   0  0  0  0  0  0  0  0  0  0  0  0
  162.4752   43.0895  145.9628 C   0  0  1  0  0  0  0  0  0  0  0  0
  162.2720   41.9227  146.7472 O   0  0  0  0  0  0  0  0  0  0  0  0
  161.2662   43.1997  145.0424 C   0  0  1  0  0  0  0  0  0  0  0  0
  161.6930   43.5401  143.7315 O   0  0  0  0  0  0  0  0  0  0  0  0
  160.7204   41.7898  145.0073 C   0  0  1  0  0  0  0  0  0  0  0  0
  161.3307   41.0655  143.9373 O   0  0  0  0  0  0  0  0  0  0  0  0
  161.1773   41.1468  146.2845 C   0  0  2  0  0  0  0  0  0  0  0  0
  160.0863   41.2223  147.2849 N   0  0  0  0  0  0  0  0  0  0  0  0
  158.7923   40.9386  147.0559 C   0  0  0  0  0  0  0  0  0  0  0  0
  158.0571   41.1242  148.1784 N   0  0  0  0  0  0  0  0  0  0  0  0
  158.8848   41.5361  149.1552 C   0  0  0  0  0  0  0  0  0  0  0  0
  158.7555   41.9075  150.5839 C   0  0  0  0  0  0  0  0  0  0  0  0
  157.6344   41.8771  151.1464 O   0  0  0  0  0  0  0  0  0  0  0  0
  159.8692   42.2746  151.2406 N   0  0  0  0  0  0  0  0  0  0  0  0
  161.0698   42.3070  150.6319 C   0  0  0  0  0  0  0  0  0  0  0  0
  162.1571   42.6797  151.3434 N   0  0  0  0  0  0  0  0  0  0  0  0
  161.2578   41.9813  149.3329 N   0  0  0  0  0  0  0  0  0  0  0  0
  160.2222   41.5959  148.5571 C   0  0  0  0  0  0  0  0  0  0  0  0
  160.6758   44.0074  142.5555 P   0  0  2  0  0  0  0  0  0  0  0  0
  159.5277   43.0308  142.4763 O   0  0  0  0  0  0  0  0  0  0  0  0
  161.5403   44.2947  141.3422 O   0  0  0  0  0  0  0  0  0  0  0  0
  160.0905   45.3965  143.1360 O   0  0  0  0  0  0  0  0  0  0  0  0
  160.8555   46.5963  143.0279 C   0  0  0  0  0  0  0  0  0  0  0  0
  160.4030   47.6896  144.0008 C   0  0  1  0  0  0  0  0  0  0  0  0
  159.1630   48.2394  143.5505 O   0  0  0  0  0  0  0  0  0  0  0  0
  160.1844   47.2257  145.4392 C   0  0  1  0  0  0  0  0  0  0  0  0
  161.3359   47.4339  146.2559 O   0  0  0  0  0  0  0  0  0  0  0  0
  159.0209   48.0919  145.8843 C   0  0  1  0  0  0  0  0  0  0  0  0
  159.4855   49.3442  146.3960 O   0  0  0  0  0  0  0  0  0  0  0  0
  158.2303   48.3808  144.6254 C   0  0  2  0  0  0  0  0  0  0  0  0
  157.1613   47.3638  144.4668 N   0  0  0  0  0  0  0  0  0  0  0  0
  156.6006   46.9880  143.3002 C   0  0  0  0  0  0  0  0  0  0  0  0
  155.6553   46.0238  143.4789 N   0  0  0  0  0  0  0  0  0  0  0  0
  155.6034   45.7597  144.7941 C   0  0  0  0  0  0  0  0  0  0  0  0
  154.8178   44.8585  145.6752 C   0  0  0  0  0  0  0  0  0  0  0  0
  153.9596   44.0672  145.2287 O   0  0  0  0  0  0  0  0  0  0  0  0
  155.0755   44.8989  146.9835 N   0  0  0  0  0  0  0  0  0  0  0  0
  155.9910   45.7260  147.5113 C   0  0  0  0  0  0  0  0  0  0  0  0
  156.1588   45.6935  148.8417 N   0  0  0  0  0  0  0  0  0  0  0  0
  156.7396   46.5816  146.7765 N   0  0  0  0  0  0  0  0  0  0  0  0
  156.5948   46.6459  145.4363 C   0  0  0  0  0  0  0  0  0  0  0  0
  1  3  2  1  0  0  0
  1 32  1  0  0  0  0
  1  2  1  0  0  0  0
  1  4  1  0  0  0  0
  4  5  1  0  0  0  0
  6  5  1  1  0  0  0
  7  6  1  0  0  0  0
  8  6  1  0  0  0  0
  8 10  1  0  0  0  0
  8  9  1  6  0  0  0
 10 11  1  6  0  0  0
 12 13  1  1  0  0  0
 12  7  1  0  0  0  0
 12 10  1  0  0  0  0
 14 13  1  0  0  0  0
 15 16  1  0  0  0  0
 15 14  2  0  0  0  0
 16 23  2  0  0  0  0
 17 16  1  0  0  0  0
 17 19  1  0  0  0  0
 18 17  2  0  0  0  0
 19 20  2  0  0  0  0
 20 22  1  0  0  0  0
 20 21  1  0  0  0  0
 23 13  1  0  0  0  0
 23 22  1  0  0  0  0
 24 25  2  6  0  0  0
 24  9  1  0  0  0  0
 24 26  1  0  0  0  0
 27 28  1  0  0  0  0
 27 24  1  0  0  0  0
 29 30  1  6  0  0  0
 29 28  1  0  0  0  0
 31 32  1  1  0  0  0
 31 29  1  0  0  0  0
 33 34  1  6  0  0  0
 33 35  1  0  0  0  0
 33 31  1  0  0  0  0
 35 36  1  6  0  0  0
 35 30  1  0  0  0  0
 36 37  1  0  0  0  0
 38 37  2  0  0  0  0
 39 38  1  0  0  0  0
 40 41  2  0  0  0  0
 40 39  1  0  0  0  0
 42 40  1  0  0  0  0
 43 42  2  0  0  0  0
 43 45  1  0  0  0  0
 44 43  1  0  0  0  0
 45 46  1  0  0  0  0
 46 39  2  0  0  0  0
 46 36  1  0  0  0  0
M  END
>  <CHROM.1>
160.74519952,-39.37832239,159.53078264,44.60765832,146.20295389,-1.24766688
0.45231112,-0.97672970

>  <Name>
lig.pdb

>  <RI>
0

>  <Rbt.Current_Directory>
/home/itssahil/PROJECTS/Mol_Feturizer/New_Systems/rnas/4yb0

>  <Rbt.Executable>
rbdock ($Id: //depot/dev/client3/rdock/2013.1/src/exe/rbdock.cxx#4 $)

>  <Rbt.Library>
libRbt.so (2013.1, Build901 2013/11/27)

>  <Rbt.Parameter_File>
/export/apps/rDock/src/rDock_2013.1_src/data/scripts/dock_solv.prm

>  <Rbt.Receptor>
prm/pocket_docking_8.prm

>  <SCORE>
-19.6974

>  <SCORE.INTER>
-20.1284

>  <SCORE.INTER.CONST>
1

>  <SCORE.INTER.POLAR>
0

>  <SCORE.INTER.ROT>
2

>  <SCORE.INTER.SOLV>
14.1999

>  <SCORE.INTER.VDW>
-23.0855

>  <SCORE.INTER.norm>
-0.437573

>  <SCORE.INTRA>
0.431011

>  <SCORE.INTRA.DIHEDRAL>
-0.0320439

>  <SCORE.INTRA.DIHEDRAL.0>
4.74153

>  <SCORE.INTRA.POLAR>
0

>  <SCORE.INTRA.POLAR.0>
0

>  <SCORE.INTRA.REPUL>
0.0243534

>  <SCORE.INTRA.REPUL.0>
0

>  <SCORE.INTRA.SOLV>
0.385607

>  <SCORE.INTRA.SOLV.lig_0>
-60.4375

>  <SCORE.INTRA.VDW>
0.132462

>  <SCORE.INTRA.VDW.0>
-1.83689

>  <SCORE.INTRA.norm>
0.0093698

>  <SCORE.RESTR>
0

>  <SCORE.RESTR.CAVITY>
0

>  <SCORE.RESTR.norm>
0

>  <SCORE.SYSTEM>
0

>  <SCORE.SYSTEM.CONST>
0

>  <SCORE.SYSTEM.DIHEDRAL>
0

>  <SCORE.SYSTEM.SOLV>
0

>  <SCORE.SYSTEM.norm>
0

>  <SCORE.heavy>
46

>  <SCORE.norm>
-0.428204

>  <RMSD>
5.837

$$$$
lig.pdb
 OpenBabel11021811523D
libRbt.so/2013.1/901 2013/11/27
 46 52  0  0  0  0  0  0  0  0999 V2000
  162.0588   47.3029  146.8815 P   0  0  2  0  0  0  0  0  0  0  0  0
  163.4505   47.7898  147.2215 O   0  0  0  0  0  0  0  0  0  0  0  0
  160.9638   47.6450  147.8587 O   0  0  0  0  0  0  0  0  0  0  0  0
  162.0390   45.7138  146.6372 O   0  0  0  0  0  0  0  0  0  0  0  0
  163.2407   44.9599  146.5453 C   0  0  0  0  0  0  0  0  0  0  0  0
  162.9551   43.5990  145.9320 C   0  0  1  0  0  0  0  0  0  0  0  0
  162.9511   42.6377  146.9779 O   0  0  0  0  0  0  0  0  0  0  0  0
  161.6132   43.4634  145.2237 C   0  0  1  0  0  0  0  0  0  0  0  0
  161.8084   43.5061  143.8178 O   0  0  0  0  0  0  0  0  0  0  0  0
  161.1594   42.0688  145.5927 C   0  0  1  0  0  0  0  0  0  0  0  0
  161.6407   41.1355  144.6236 O   0  0  0  0  0  0  0  0  0  0  0  0
  161.8493   41.7475  146.8866 C   0  0  2  0  0  0  0  0  0  0  0  0
  160.9246   42.0208  148.0122 N   0  0  0  0  0  0  0  0  0  0  0  0
  161.1000   42.9576  148.9604 C   0  0  0  0  0  0  0  0  0  0  0  0
  160.0782   42.9339  149.8495 N   0  0  0  0  0  0  0  0  0  0  0  0
  159.2229   41.9657  149.4755 C   0  0  0  0  0  0  0  0  0  0  0  0
  157.9403   41.4168  149.9753 C   0  0  0  0  0  0  0  0  0  0  0  0
  157.4123   41.8867  151.0118 O   0  0  0  0  0  0  0  0  0  0  0  0
  157.3769   40.4101  149.2857 N   0  0  0  0  0  0  0  0  0  0  0  0
  157.9484   39.9084  148.1746 C   0  0  0  0  0  0  0  0  0  0  0  0
  157.3340   38.8987  147.5185 N   0  0  0  0  0  0  0  0  0  0  0  0
  159.1162   40.3619  147.6651 N   0  0  0  0  0  0  0  0  0  0  0  0
  159.7884   41.3699  148.2610 C   0  0  0  0  0  0  0  0  0  0  0  0
  160.5931   43.6645  142.7530 P   0  0  2  0  0  0  0  0  0  0  0  0
  159.5111   42.6654  143.0835 O   0  0  0  0  0  0  0  0  0  0  0  0
  161.2383   43.6896  141.3800 O   0  0  0  0  0  0  0  0  0  0  0  0
  160.0179   45.1335  143.1003 O   0  0  0  0  0  0  0  0  0  0  0  0
  160.6789   46.2967  142.6039 C   0  0  0  0  0  0  0  0  0  0  0  0
  160.3146   47.5712  143.3719 C   0  0  1  0  0  0  0  0  0  0  0  0
  158.9872   47.9700  143.0231 O   0  0  0  0  0  0  0  0  0  0  0  0
  160.3523   47.4430  144.8931 C   0  0  1  0  0  0  0  0  0  0  0  0
  161.6011   47.8632  145.4407 O   0  0  0  0  0  0  0  0  0  0  0  0
  159.2195   48.3567  145.3220 C   0  0  1  0  0  0  0  0  0  0  0  0
  159.6774   49.7047  145.4594 O   0  0  0  0  0  0  0  0  0  0  0  0
  158.2259   48.3286  144.1794 C   0  0  2  0  0  0  0  0  0  0  0  0
  157.2122   47.2741  144.4295 N   0  0  0  0  0  0  0  0  0  0  0  0
  156.5514   46.5785  143.4829 C   0  0  0  0  0  0  0  0  0  0  0  0
  155.6941   45.6702  144.0262 N   0  0  0  0  0  0  0  0  0  0  0  0
  155.8038   45.7717  145.3604 C   0  0  0  0  0  0  0  0  0  0  0  0
  155.1782   45.1196  146.5390 C   0  0  0  0  0  0  0  0  0  0  0  0
  154.3277   44.2106  146.4279 O   0  0  0  0  0  0  0  0  0  0  0  0
  155.5751   45.5216  147.7475 N   0  0  0  0  0  0  0  0  0  0  0  0
  156.4892   46.4889  147.9197 C   0  0  0  0  0  0  0  0  0  0  0  0
  156.8039   46.8240  149.1798 N   0  0  0  0  0  0  0  0  0  0  0  0
  157.0970   47.1357  146.8977 N   0  0  0  0  0  0  0  0  0  0  0  0
  156.8020   46.8292  145.6170 C   0  0  0  0  0  0  0  0  0  0  0  0
  1  3  2  1  0  0  0
  1 32  1  0  0  0  0
  1  2  1  0  0  0  0
  1  4  1  0  0  0  0
  4  5  1  0  0  0  0
  6  5  1  1  0  0  0
  7  6  1  0  0  0  0
  8  6  1  0  0  0  0
  8 10  1  0  0  0  0
  8  9  1  6  0  0  0
 10 11  1  6  0  0  0
 12 13  1  1  0  0  0
 12  7  1  0  0  0  0
 12 10  1  0  0  0  0
 14 13  1  0  0  0  0
 15 16  1  0  0  0  0
 15 14  2  0  0  0  0
 16 23  2  0  0  0  0
 17 16  1  0  0  0  0
 17 19  1  0  0  0  0
 18 17  2  0  0  0  0
 19 20  2  0  0  0  0
 20 22  1  0  0  0  0
 20 21  1  0  0  0  0
 23 13  1  0  0  0  0
 23 22  1  0  0  0  0
 24 25  2  1  0  0  0
 24  9  1  0  0  0  0
 24 26  1  0  0  0  0
 27 28  1  0  0  0  0
 27 24  1  0  0  0  0
 29 30  1  1  0  0  0
 29 28  1  0  0  0  0
 31 32  1  1  0  0  0
 31 29  1  0  0  0  0
 33 34  1  6  0  0  0
 33 35  1  0  0  0  0
 33 31  1  0  0  0  0
 35 36  1  1  0  0  0
 35 30  1  0  0  0  0
 36 37  1  0  0  0  0
 38 37  2  0  0  0  0
 39 38  1  0  0  0  0
 40 41  2  0  0  0  0
 40 39  1  0  0  0  0
 42 40  1  0  0  0  0
 43 42  2  0  0  0  0
 43 45  1  0  0  0  0
 44 43  1  0  0  0  0
 45 46  1  0  0  0  0
 46 39  2  0  0  0  0
 46 36  1  0  0  0  0
M  END
>  <CHROM.1>
0.09529306,-35.77037692,159.56095508,44.68382758,146.06511771,-1.42384734
-0.36847246,2.61258092

>  <Name>
lig.pdb

>  <RI>
0

>  <Rbt.Current_Directory>
/home/itssahil/PROJECTS/Mol_Feturizer/New_Systems/rnas/4yb0

>  <Rbt.Executable>
rbdock ($Id: //depot/dev/client3/rdock/2013.1/src/exe/rbdock.cxx#4 $)

>  <Rbt.Library>
libRbt.so (2013.1, Build901 2013/11/27)

>  <Rbt.Parameter_File>
/export/apps/rDock/src/rDock_2013.1_src/data/scripts/dock_solv.prm

>  <Rbt.Receptor>
prm/pocket_docking_7.prm

>  <SCORE>
-18.7354

>  <SCORE.INTER>
-19.0407

>  <SCORE.INTER.CONST>
1

>  <SCORE.INTER.POLAR>
0

>  <SCORE.INTER.ROT>
2

>  <SCORE.INTER.SOLV>
16.602

>  <SCORE.INTER.VDW>
-23.1611

>  <SCORE.INTER.norm>
-0.413929

>  <SCORE.INTRA>
0.305353

>  <SCORE.INTRA.DIHEDRAL>
0.000443217

>  <SCORE.INTRA.DIHEDRAL.0>
4.74153

>  <SCORE.INTRA.POLAR>
0

>  <SCORE.INTRA.POLAR.0>
0

>  <SCORE.INTRA.REPUL>
0.0128001

>  <SCORE.INTRA.REPUL.0>
0

>  <SCORE.INTRA.SOLV>
0.0884268

>  <SCORE.INTRA.SOLV.lig_0>
-60.4375

>  <SCORE.INTRA.VDW>
0.196917

>  <SCORE.INTRA.VDW.0>
-1.83689

>  <SCORE.INTRA.norm>
0.0066381

>  <SCORE.RESTR>
0

>  <SCORE.RESTR.CAVITY>
0

>  <SCORE.RESTR.norm>
0

>  <SCORE.SYSTEM>
0

>  <SCORE.SYSTEM.CONST>
0

>  <SCORE.SYSTEM.DIHEDRAL>
0

>  <SCORE.SYSTEM.SOLV>
0

>  <SCORE.SYSTEM.norm>
0

>  <SCORE.heavy>
46

>  <SCORE.norm>
-0.407291

>  <RMSD>
5.841

$$$$
lig.pdb
 OpenBabel11021811523D
libRbt.so/2013.1/901 2013/11/27
 46 52  0  0  0  0  0  0  0  0999 V2000
  160.2415   44.6905  147.5055 P   0  0  2  0  0  0  0  0  0  0  0  0
  161.4538   44.2419  148.2921 O   0  0  0  0  0  0  0  0  0  0  0  0
  160.0109   44.0205  146.1755 O   0  0  0  0  0  0  0  0  0  0  0  0
  160.2508   46.2815  147.2742 O   0  0  0  0  0  0  0  0  0  0  0  0
  161.1827   47.1248  147.9387 C   0  0  0  0  0  0  0  0  0  0  0  0
  160.7265   48.5720  147.8542 C   0  0  1  0  0  0  0  0  0  0  0  0
  161.5116   49.2233  146.8656 O   0  0  0  0  0  0  0  0  0  0  0  0
  159.2727   48.7828  147.4506 C   0  0  1  0  0  0  0  0  0  0  0  0
  158.5038   49.1243  148.5946 O   0  0  0  0  0  0  0  0  0  0  0  0
  159.3303   49.9926  146.5451 C   0  0  1  0  0  0  0  0  0  0  0  0
  159.1719   51.1814  147.3221 O   0  0  0  0  0  0  0  0  0  0  0  0
  160.7251   50.0175  145.9907 C   0  0  2  0  0  0  0  0  0  0  0  0
  160.7268   49.3883  144.6488 N   0  0  0  0  0  0  0  0  0  0  0  0
  161.8172   48.9811  143.9759 C   0  0  0  0  0  0  0  0  0  0  0  0
  161.4701   48.4638  142.7730 N   0  0  0  0  0  0  0  0  0  0  0  0
  160.1318   48.5352  142.6593 C   0  0  0  0  0  0  0  0  0  0  0  0
  159.1212   48.1613  141.6421 C   0  0  0  0  0  0  0  0  0  0  0  0
  159.4775   47.6389  140.5585 O   0  0  0  0  0  0  0  0  0  0  0  0
  157.8291   48.4031  141.9222 N   0  0  0  0  0  0  0  0  0  0  0  0
  157.4519   48.9654  143.0860 C   0  0  0  0  0  0  0  0  0  0  0  0
  156.1374   49.1810  143.3158 N   0  0  0  0  0  0  0  0  0  0  0  0
  158.3211   49.3304  144.0556 N   0  0  0  0  0  0  0  0  0  0  0  0
  159.6496   49.1446  143.9026 C   0  0  0  0  0  0  0  0  0  0  0  0
  156.8806   49.1552  148.6015 P   0  0  2  0  0  0  0  0  0  0  0  0
  156.3948   49.9455  147.4108 O   0  0  0  0  0  0  0  0  0  0  0  0
  156.4739   49.5402  150.0116 O   0  0  0  0  0  0  0  0  0  0  0  0
  156.5039   47.6062  148.3406 O   0  0  0  0  0  0  0  0  0  0  0  0
  156.5463   46.6684  149.4154 C   0  0  0  0  0  0  0  0  0  0  0  0
  156.6233   45.2132  148.9432 C   0  0  1  0  0  0  0  0  0  0  0  0
  155.3520   44.8169  148.4240 O   0  0  0  0  0  0  0  0  0  0  0  0
  157.6521   44.9420  147.8477 C   0  0  1  0  0  0  0  0  0  0  0  0
  158.8990   44.4921  148.3759 O   0  0  0  0  0  0  0  0  0  0  0  0
  156.9721   43.8623  147.0266 C   0  0  1  0  0  0  0  0  0  0  0  0
  157.2511   42.5652  147.5611 O   0  0  0  0  0  0  0  0  0  0  0  0
  155.4869   44.1103  147.1880 C   0  0  2  0  0  0  0  0  0  0  0  0
  155.0067   44.9802  146.0858 N   0  0  0  0  0  0  0  0  0  0  0  0
  155.6363   46.0763  145.6182 C   0  0  0  0  0  0  0  0  0  0  0  0
  154.9523   46.6556  144.5926 N   0  0  0  0  0  0  0  0  0  0  0  0
  153.8528   45.9146  144.3820 C   0  0  0  0  0  0  0  0  0  0  0  0
  152.6883   45.9639  143.4616 C   0  0  0  0  0  0  0  0  0  0  0  0
  152.5627   46.8490  142.5881 O   0  0  0  0  0  0  0  0  0  0  0  0
  151.7709   45.0024  143.5778 N   0  0  0  0  0  0  0  0  0  0  0  0
  151.8632   44.0270  144.4949 C   0  0  0  0  0  0  0  0  0  0  0  0
  150.8764   43.1193  144.5326 N   0  0  0  0  0  0  0  0  0  0  0  0
  152.8874   43.9192  145.3733 N   0  0  0  0  0  0  0  0  0  0  0  0
  153.8952   44.8168  145.3687 C   0  0  0  0  0  0  0  0  0  0  0  0
  1  3  2  6  0  0  0
  1 32  1  0  0  0  0
  1  2  1  0  0  0  0
  1  4  1  0  0  0  0
  4  5  1  0  0  0  0
  6  5  1  6  0  0  0
  7  6  1  0  0  0  0
  8  6  1  0  0  0  0
  8 10  1  0  0  0  0
  8  9  1  1  0  0  0
 10 11  1  1  0  0  0
 12 13  1  6  0  0  0
 12  7  1  0  0  0  0
 12 10  1  0  0  0  0
 14 13  1  0  0  0  0
 15 16  1  0  0  0  0
 15 14  2  0  0  0  0
 16 23  2  0  0  0  0
 17 16  1  0  0  0  0
 17 19  1  0  0  0  0
 18 17  2  0  0  0  0
 19 20  2  0  0  0  0
 20 22  1  0  0  0  0
 20 21  1  0  0  0  0
 23 13  1  0  0  0  0
 23 22  1  0  0  0  0
 24 25  2  6  0  0  0
 24  9  1  0  0  0  0
 24 26  1  0  0  0  0
 27 28  1  0  0  0  0
 27 24  1  0  0  0  0
 29 30  1  6  0  0  0
 29 28  1  0  0  0  0
 31 32  1  1  0  0  0
 31 29  1  0  0  0  0
 33 34  1  1  0  0  0
 33 35  1  0  0  0  0
 33 31  1  0  0  0  0
 35 36  1  6  0  0  0
 35 30  1  0  0  0  0
 36 37  1  0  0  0  0
 38 37  2  0  0  0  0
 39 38  1  0  0  0  0
 40 41  2  0  0  0  0
 40 39  1  0  0  0  0
 42 40  1  0  0  0  0
 43 42  2  0  0  0  0
 43 45  1  0  0  0  0
 44 43  1  0  0  0  0
 45 46  1  0  0  0  0
 46 39  2  0  0  0  0
 46 36  1  0  0  0  0
M  END
>  <CHROM.1>
-49.82555429,71.37917823,157.52754043,46.94774119,146.05412220,-0.11225050
0.49842737,2.06607226

>  <Name>
lig.pdb

>  <RI>
0

>  <Rbt.Current_Directory>
/home/itssahil/PROJECTS/Mol_Feturizer/New_Systems/rnas/4yb0

>  <Rbt.Executable>
rbdock ($Id: //depot/dev/client3/rdock/2013.1/src/exe/rbdock.cxx#4 $)

>  <Rbt.Library>
libRbt.so (2013.1, Build901 2013/11/27)

>  <Rbt.Parameter_File>
/export/apps/rDock/src/rDock_2013.1_src/data/scripts/dock_solv.prm

>  <Rbt.Receptor>
prm/pocket_docking_7.prm

>  <SCORE>
-23.826

>  <SCORE.INTER>
-24.4144

>  <SCORE.INTER.CONST>
1

>  <SCORE.INTER.POLAR>
0

>  <SCORE.INTER.ROT>
2

>  <SCORE.INTER.SOLV>
18.0983

>  <SCORE.INTER.VDW>
-27.2424

>  <SCORE.INTER.norm>
-0.530748

>  <SCORE.INTRA>
0.588419

>  <SCORE.INTRA.DIHEDRAL>
0.0500512

>  <SCORE.INTRA.DIHEDRAL.0>
4.74153

>  <SCORE.INTRA.POLAR>
0

>  <SCORE.INTRA.POLAR.0>
0

>  <SCORE.INTRA.REPUL>
0

>  <SCORE.INTRA.REPUL.0>
0

>  <SCORE.INTRA.SOLV>
0.803133

>  <SCORE.INTRA.SOLV.lig_0>
-60.4375

>  <SCORE.INTRA.VDW>
0.161827

>  <SCORE.INTRA.VDW.0>
-1.83689

>  <SCORE.INTRA.norm>
0.0127917

>  <SCORE.RESTR>
0

>  <SCORE.RESTR.CAVITY>
0

>  <SCORE.RESTR.norm>
0

>  <SCORE.SYSTEM>
0

>  <SCORE.SYSTEM.CONST>
0

>  <SCORE.SYSTEM.DIHEDRAL>
0

>  <SCORE.SYSTEM.SOLV>
0

>  <SCORE.SYSTEM.norm>
0

>  <SCORE.heavy>
46

>  <SCORE.norm>
-0.517957

>  <RMSD>
5.868

$$$$
lig.pdb
 OpenBabel11021811523D
libRbt.so/2013.1/901 2013/11/27
 46 52  0  0  0  0  0  0  0  0999 V2000
  161.9897   47.5469  146.3683 P   0  0  2  0  0  0  0  0  0  0  0  0
  163.3819   48.0931  146.5989 O   0  0  0  0  0  0  0  0  0  0  0  0
  160.9408   47.9135  147.3863 O   0  0  0  0  0  0  0  0  0  0  0  0
  162.0077   45.9464  146.2161 O   0  0  0  0  0  0  0  0  0  0  0  0
  163.2261   45.2237  146.0976 C   0  0  0  0  0  0  0  0  0  0  0  0
  162.9507   43.8215  145.5800 C   0  0  1  0  0  0  0  0  0  0  0  0
  163.0365   42.9233  146.6771 O   0  0  0  0  0  0  0  0  0  0  0  0
  161.5762   43.6057  144.9595 C   0  0  1  0  0  0  0  0  0  0  0  0
  161.6907   43.5718  143.5444 O   0  0  0  0  0  0  0  0  0  0  0  0
  161.1892   42.2225  145.4326 C   0  0  1  0  0  0  0  0  0  0  0  0
  161.6453   41.2485  144.4917 O   0  0  0  0  0  0  0  0  0  0  0  0
  161.9608   41.9976  146.7005 C   0  0  2  0  0  0  0  0  0  0  0  0
  161.0925   42.3092  147.8605 N   0  0  0  0  0  0  0  0  0  0  0  0
  161.3447   43.2357  148.8015 C   0  0  0  0  0  0  0  0  0  0  0  0
  160.3574   43.2553  149.7288 N   0  0  0  0  0  0  0  0  0  0  0  0
  159.4468   42.3263  149.3875 C   0  0  0  0  0  0  0  0  0  0  0  0
  158.1613   41.8334  149.9356 C   0  0  0  0  0  0  0  0  0  0  0  0
  157.6942   42.3241  150.9915 O   0  0  0  0  0  0  0  0  0  0  0  0
  157.5283   40.8536  149.2678 N   0  0  0  0  0  0  0  0  0  0  0  0
  158.0347   40.3292  148.1357 C   0  0  0  0  0  0  0  0  0  0  0  0
  157.3520   39.3487  147.5034 N   0  0  0  0  0  0  0  0  0  0  0  0
  159.2010   40.7319  147.5823 N   0  0  0  0  0  0  0  0  0  0  0  0
  159.9390   41.7084  148.1523 C   0  0  0  0  0  0  0  0  0  0  0  0
  160.4129   43.6323  142.5446 P   0  0  2  0  0  0  0  0  0  0  0  0
  159.3841   42.6232  142.9934 O   0  0  0  0  0  0  0  0  0  0  0  0
  160.9789   43.5959  141.1374 O   0  0  0  0  0  0  0  0  0  0  0  0
  159.8110   45.1018  142.8409 O   0  0  0  0  0  0  0  0  0  0  0  0
  160.4050   46.2527  142.2418 C   0  0  0  0  0  0  0  0  0  0  0  0
  160.0433   47.5587  142.9561 C   0  0  1  0  0  0  0  0  0  0  0  0
  158.6862   47.8977  142.6628 O   0  0  0  0  0  0  0  0  0  0  0  0
  160.1705   47.5208  144.4774 C   0  0  1  0  0  0  0  0  0  0  0  0
  161.4339   48.0085  144.9270 O   0  0  0  0  0  0  0  0  0  0  0  0
  159.0346   48.4247  144.9188 C   0  0  1  0  0  0  0  0  0  0  0  0
  159.4556   49.7912  144.9527 O   0  0  0  0  0  0  0  0  0  0  0  0
  157.9799   48.3010  143.8391 C   0  0  2  0  0  0  0  0  0  0  0  0
  157.0165   47.2339  144.2068 N   0  0  0  0  0  0  0  0  0  0  0  0
  156.2758   46.5116  143.3430 C   0  0  0  0  0  0  0  0  0  0  0  0
  155.4951   45.5982  143.9844 N   0  0  0  0  0  0  0  0  0  0  0  0
  155.7381   45.7237  145.2987 C   0  0  0  0  0  0  0  0  0  0  0  0
  155.2477   45.0808  146.5445 C   0  0  0  0  0  0  0  0  0  0  0  0
  154.4072   44.1559  146.5343 O   0  0  0  0  0  0  0  0  0  0  0  0
  155.7580   45.5095  147.7002 N   0  0  0  0  0  0  0  0  0  0  0  0
  156.6669   46.4947  147.7639 C   0  0  0  0  0  0  0  0  0  0  0  0
  157.1020   46.8561  148.9802 N   0  0  0  0  0  0  0  0  0  0  0  0
  157.1556   47.1346  146.6757 N   0  0  0  0  0  0  0  0  0  0  0  0
  156.7375   46.8020  145.4365 C   0  0  0  0  0  0  0  0  0  0  0  0
  1  3  2  1  0  0  0
  1 32  1  0  0  0  0
  1  2  1  0  0  0  0
  1  4  1  0  0  0  0
  4  5  1  0  0  0  0
  6  5  1  1  0  0  0
  7  6  1  0  0  0  0
  8  6  1  0  0  0  0
  8 10  1  0  0  0  0
  8  9  1  6  0  0  0
 10 11  1  6  0  0  0
 12 13  1  1  0  0  0
 12  7  1  0  0  0  0
 12 10  1  0  0  0  0
 14 13  1  0  0  0  0
 15 16  1  0  0  0  0
 15 14  2  0  0  0  0
 16 23  2  0  0  0  0
 17 16  1  0  0  0  0
 17 19  1  0  0  0  0
 18 17  2  0  0  0  0
 19 20  2  0  0  0  0
 20 22  1  0  0  0  0
 20 21  1  0  0  0  0
 23 13  1  0  0  0  0
 23 22  1  0  0  0  0
 24 25  2  1  0  0  0
 24  9  1  0  0  0  0
 24 26  1  0  0  0  0
 27 28  1  0  0  0  0
 27 24  1  0  0  0  0
 29 30  1  1  0  0  0
 29 28  1  0  0  0  0
 31 32  1  6  0  0  0
 31 29  1  0  0  0  0
 33 34  1  6  0  0  0
 33 35  1  0  0  0  0
 33 31  1  0  0  0  0
 35 36  1  1  0  0  0
 35 30  1  0  0  0  0
 36 37  1  0  0  0  0
 38 37  2  0  0  0  0
 39 38  1  0  0  0  0
 40 41  2  0  0  0  0
 40 39  1  0  0  0  0
 42 40  1  0  0  0  0
 43 42  2  0  0  0  0
 43 45  1  0  0  0  0
 44 43  1  0  0  0  0
 45 46  1  0  0  0  0
 46 39  2  0  0  0  0
 46 36  1  0  0  0  0
M  END
>  <CHROM.1>
-5.45367585,-39.36736232,159.53436847,44.81927310,145.82978349,-1.44805945
-0.37366590,2.53186296

>  <Name>
lig.pdb

>  <RI>
0

>  <Rbt.Current_Directory>
/home/itssahil/PROJECTS/Mol_Feturizer/New_Systems/rnas/4yb0

>  <Rbt.Executable>
rbdock ($Id: //depot/dev/client3/rdock/2013.1/src/exe/rbdock.cxx#4 $)

>  <Rbt.Library>
libRbt.so (2013.1, Build901 2013/11/27)

>  <Rbt.Parameter_File>
/export/apps/rDock/src/rDock_2013.1_src/data/scripts/dock_solv.prm

>  <Rbt.Receptor>
prm/pocket_docking_4.prm

>  <SCORE>
-17.7953

>  <SCORE.INTER>
-18.2998

>  <SCORE.INTER.CONST>
1

>  <SCORE.INTER.POLAR>
0

>  <SCORE.INTER.ROT>
2

>  <SCORE.INTER.SOLV>
16.319

>  <SCORE.INTER.VDW>
-22.5728

>  <SCORE.INTER.norm>
-0.397821

>  <SCORE.INTRA>
0.37838

>  <SCORE.INTRA.DIHEDRAL>
0.0182356

>  <SCORE.INTRA.DIHEDRAL.0>
4.74153

>  <SCORE.INTRA.POLAR>
0

>  <SCORE.INTRA.POLAR.0>
0

>  <SCORE.INTRA.REPUL>
0.000114706

>  <SCORE.INTRA.REPUL.0>
0

>  <SCORE.INTRA.SOLV>
0.131396

>  <SCORE.INTRA.SOLV.lig_0>
-60.4375

>  <SCORE.INTRA.VDW>
0.302991

>  <SCORE.INTRA.VDW.0>
-1.83689

>  <SCORE.INTRA.norm>
0.00822566

>  <SCORE.RESTR>
0.126129

>  <SCORE.RESTR.CAVITY>
0.126129

>  <SCORE.RESTR.norm>
0.00274194

>  <SCORE.SYSTEM>
0

>  <SCORE.SYSTEM.CONST>
0

>  <SCORE.SYSTEM.DIHEDRAL>
0

>  <SCORE.SYSTEM.SOLV>
0

>  <SCORE.SYSTEM.norm>
0

>  <SCORE.heavy>
46

>  <SCORE.norm>
-0.386853

>  <RMSD>
5.886

$$$$
lig.pdb
 OpenBabel11021811523D
libRbt.so/2013.1/901 2013/11/27
 46 52  0  0  0  0  0  0  0  0999 V2000
  161.7186   46.6188  147.4472 P   0  0  2  0  0  0  0  0  0  0  0  0
  163.0690   46.9199  148.0600 O   0  0  0  0  0  0  0  0  0  0  0  0
  160.5108   46.8671  148.3136 O   0  0  0  0  0  0  0  0  0  0  0  0
  161.6474   45.1075  146.9033 O   0  0  0  0  0  0  0  0  0  0  0  0
  162.8058   44.2864  146.8332 C   0  0  0  0  0  0  0  0  0  0  0  0
  162.5399   43.0873  145.9381 C   0  0  1  0  0  0  0  0  0  0  0  0
  162.3268   41.9561  146.7704 O   0  0  0  0  0  0  0  0  0  0  0  0
  161.3130   43.1932  145.0411 C   0  0  1  0  0  0  0  0  0  0  0  0
  161.7176   43.4737  143.7091 O   0  0  0  0  0  0  0  0  0  0  0  0
  160.7328   41.7971  145.0715 C   0  0  1  0  0  0  0  0  0  0  0  0
  161.3007   41.0184  144.0165 O   0  0  0  0  0  0  0  0  0  0  0  0
  161.2034   41.1909  146.3617 C   0  0  2  0  0  0  0  0  0  0  0  0
  160.1379   41.3309  147.3825 N   0  0  0  0  0  0  0  0  0  0  0  0
  158.8643   40.9223  147.2466 C   0  0  0  0  0  0  0  0  0  0  0  0
  158.1480   41.2148  148.3586 N   0  0  0  0  0  0  0  0  0  0  0  0
  158.9675   41.8245  149.2335 C   0  0  0  0  0  0  0  0  0  0  0  0
  158.8488   42.3896  150.5983 C   0  0  0  0  0  0  0  0  0  0  0  0
  157.7496   42.3591  151.2022 O   0  0  0  0  0  0  0  0  0  0  0  0
  159.9480   42.9296  151.1521 N   0  0  0  0  0  0  0  0  0  0  0  0
  161.1251   42.9612  150.4991 C   0  0  0  0  0  0  0  0  0  0  0  0
  162.1990   43.5127  151.1073 N   0  0  0  0  0  0  0  0  0  0  0  0
  161.3022   42.4645  149.2538 N   0  0  0  0  0  0  0  0  0  0  0  0
  160.2790   41.8949  148.5818 C   0  0  0  0  0  0  0  0  0  0  0  0
  160.6851   43.9220  142.5391 P   0  0  2  0  0  0  0  0  0  0  0  0
  159.5123   42.9720  142.5223 O   0  0  0  0  0  0  0  0  0  0  0  0
  161.5281   44.1422  141.2970 O   0  0  0  0  0  0  0  0  0  0  0  0
  160.1469   45.3460  143.0794 O   0  0  0  0  0  0  0  0  0  0  0  0
  160.9378   46.5215  142.9090 C   0  0  0  0  0  0  0  0  0  0  0  0
  160.5343   47.6612  143.8496 C   0  0  1  0  0  0  0  0  0  0  0  0
  159.2978   48.2245  143.4063 O   0  0  0  0  0  0  0  0  0  0  0  0
  160.3378   47.2569  145.3090 C   0  0  1  0  0  0  0  0  0  0  0  0
  161.5124   47.4667  146.0915 O   0  0  0  0  0  0  0  0  0  0  0  0
  159.2060   48.1678  145.7466 C   0  0  1  0  0  0  0  0  0  0  0  0
  159.7123   49.4263  146.2001 O   0  0  0  0  0  0  0  0  0  0  0  0
  158.3938   48.4291  144.4954 C   0  0  2  0  0  0  0  0  0  0  0  0
  157.2973   47.4339  144.3991 N   0  0  0  0  0  0  0  0  0  0  0  0
  156.7134   47.0153  143.2587 C   0  0  0  0  0  0  0  0  0  0  0  0
  155.7458   46.0863  143.4953 N   0  0  0  0  0  0  0  0  0  0  0  0
  155.7027   45.8894  144.8226 C   0  0  0  0  0  0  0  0  0  0  0  0
  154.9048   45.0540  145.7559 C   0  0  0  0  0  0  0  0  0  0  0  0
  154.0214   44.2642  145.3585 O   0  0  0  0  0  0  0  0  0  0  0  0
  155.1789   45.1525  147.0577 N   0  0  0  0  0  0  0  0  0  0  0  0
  156.1215   45.9805  147.5338 C   0  0  0  0  0  0  0  0  0  0  0  0
  156.3042   46.0098  148.8623 N   0  0  0  0  0  0  0  0  0  0  0  0
  156.8830   46.7787  146.7493 N   0  0  0  0  0  0  0  0  0  0  0  0
  156.7240   46.7801  145.4092 C   0  0  0  0  0  0  0  0  0  0  0  0
  1  3  2  1  0  0  0
  1 32  1  0  0  0  0
  1  2  1  0  0  0  0
  1  4  1  0  0  0  0
  4  5  1  0  0  0  0
  6  5  1  1  0  0  0
  7  6  1  0  0  0  0
  8  6  1  0  0  0  0
  8 10  1  0  0  0  0
  8  9  1  6  0  0  0
 10 11  1  6  0  0  0
 12 13  1  1  0  0  0
 12  7  1  0  0  0  0
 12 10  1  0  0  0  0
 14 13  1  0  0  0  0
 15 16  1  0  0  0  0
 15 14  2  0  0  0  0
 16 23  2  0  0  0  0
 17 16  1  0  0  0  0
 17 19  1  0  0  0  0
 18 17  2  0  0  0  0
 19 20  2  0  0  0  0
 20 22  1  0  0  0  0
 20 21  1  0  0  0  0
 23 13  1  0  0  0  0
 23 22  1  0  0  0  0
 24 25  2  6  0  0  0
 24  9  1  0  0  0  0
 24 26  1  0  0  0  0
 27 28  1  0  0  0  0
 27 24  1  0  0  0  0
 29 30  1  6  0  0  0
 29 28  1  0  0  0  0
 31 32  1  1  0  0  0
 31 29  1  0  0  0  0
 33 34  1  6  0  0  0
 33 35  1  0  0  0  0
 33 31  1  0  0  0  0
 35 36  1  6  0  0  0
 35 30  1  0  0  0  0
 36 37  1  0  0  0  0
 38 37  2  0  0  0  0
 39 38  1  0  0  0  0
 40 41  2  0  0  0  0
 40 39  1  0  0  0  0
 42 40  1  0  0  0  0
 43 42  2  0  0  0  0
 43 45  1  0  0  0  0
 44 43  1  0  0  0  0
 45 46  1  0  0  0  0
 46 39  2  0  0  0  0
 46 36  1  0  0  0  0
M  END
>  <CHROM.1>
169.21590572,-38.41751275,159.62594130,44.73262176,146.17017072,-1.22821027
0.50217160,-1.03730117

>  <Name>
lig.pdb

>  <RI>
0

>  <Rbt.Current_Directory>
/home/itssahil/PROJECTS/Mol_Feturizer/New_Systems/rnas/4yb0

>  <Rbt.Executable>
rbdock ($Id: //depot/dev/client3/rdock/2013.1/src/exe/rbdock.cxx#4 $)

>  <Rbt.Library>
libRbt.so (2013.1, Build901 2013/11/27)

>  <Rbt.Parameter_File>
/export/apps/rDock/src/rDock_2013.1_src/data/scripts/dock_solv.prm

>  <Rbt.Receptor>
prm/pocket_docking_6.prm

>  <SCORE>
-19.5666

>  <SCORE.INTER>
-19.5524

>  <SCORE.INTER.CONST>
1

>  <SCORE.INTER.POLAR>
0

>  <SCORE.INTER.ROT>
2

>  <SCORE.INTER.SOLV>
13.5185

>  <SCORE.INTER.VDW>
-22.4744

>  <SCORE.INTER.norm>
-0.425052

>  <SCORE.INTRA>
-0.0142429

>  <SCORE.INTRA.DIHEDRAL>
-0.0189657

>  <SCORE.INTRA.DIHEDRAL.0>
4.74153

>  <SCORE.INTRA.POLAR>
0

>  <SCORE.INTRA.POLAR.0>
0

>  <SCORE.INTRA.REPUL>
0.00464063

>  <SCORE.INTRA.REPUL.0>
0

>  <SCORE.INTRA.SOLV>
0.513951

>  <SCORE.INTRA.SOLV.lig_0>
-60.4375

>  <SCORE.INTRA.VDW>
-0.284939

>  <SCORE.INTRA.VDW.0>
-1.83689

>  <SCORE.INTRA.norm>
-0.000309629

>  <SCORE.RESTR>
0

>  <SCORE.RESTR.CAVITY>
0

>  <SCORE.RESTR.norm>
0

>  <SCORE.SYSTEM>
0

>  <SCORE.SYSTEM.CONST>
0

>  <SCORE.SYSTEM.DIHEDRAL>
0

>  <SCORE.SYSTEM.SOLV>
0

>  <SCORE.SYSTEM.norm>
0

>  <SCORE.heavy>
46

>  <SCORE.norm>
-0.425362

>  <RMSD>
5.927

$$$$
lig.pdb
 OpenBabel11021811523D
libRbt.so/2013.1/901 2013/11/27
 46 52  0  0  0  0  0  0  0  0999 V2000
  161.7356   46.5840  147.4396 P   0  0  2  0  0  0  0  0  0  0  0  0
  163.0866   46.8797  148.0537 O   0  0  0  0  0  0  0  0  0  0  0  0
  160.5284   46.8300  148.3074 O   0  0  0  0  0  0  0  0  0  0  0  0
  161.6619   45.0755  146.8881 O   0  0  0  0  0  0  0  0  0  0  0  0
  162.8189   44.2529  146.8138 C   0  0  0  0  0  0  0  0  0  0  0  0
  162.5508   43.0588  145.9126 C   0  0  1  0  0  0  0  0  0  0  0  0
  162.3360   41.9237  146.7393 O   0  0  0  0  0  0  0  0  0  0  0  0
  161.3241   43.1712  145.0164 C   0  0  1  0  0  0  0  0  0  0  0  0
  161.7289   43.4577  143.6858 O   0  0  0  0  0  0  0  0  0  0  0  0
  160.7415   41.7759  145.0399 C   0  0  1  0  0  0  0  0  0  0  0  0
  161.3080   41.0016  143.9809 O   0  0  0  0  0  0  0  0  0  0  0  0
  161.2112   41.1625  146.3269 C   0  0  2  0  0  0  0  0  0  0  0  0
  160.1461   41.2991  147.3485 N   0  0  0  0  0  0  0  0  0  0  0  0
  158.8509   40.9819  147.1771 C   0  0  0  0  0  0  0  0  0  0  0  0
  158.1429   41.2422  148.3024 N   0  0  0  0  0  0  0  0  0  0  0  0
  158.9899   41.7375  149.2222 C   0  0  0  0  0  0  0  0  0  0  0  0
  158.8927   42.2141  150.6220 C   0  0  0  0  0  0  0  0  0  0  0  0
  157.7876   42.2116  151.2158 O   0  0  0  0  0  0  0  0  0  0  0  0
  160.0178   42.6443  151.2184 N   0  0  0  0  0  0  0  0  0  0  0  0
  161.2012   42.6463  150.5762 C   0  0  0  0  0  0  0  0  0  0  0  0
  162.3012   43.0859  151.2274 N   0  0  0  0  0  0  0  0  0  0  0  0
  161.3597   42.2260  149.3007 N   0  0  0  0  0  0  0  0  0  0  0  0
  160.3099   41.7695  148.5848 C   0  0  0  0  0  0  0  0  0  0  0  0
  160.6970   43.9136  142.5181 P   0  0  2  0  0  0  0  0  0  0  0  0
  159.5227   42.9657  142.4967 O   0  0  0  0  0  0  0  0  0  0  0  0
  161.5403   44.1387  141.2770 O   0  0  0  0  0  0  0  0  0  0  0  0
  160.1612   45.3357  143.0656 O   0  0  0  0  0  0  0  0  0  0  0  0
  160.9541   46.5107  142.9010 C   0  0  0  0  0  0  0  0  0  0  0  0
  160.5526   47.6464  143.8474 C   0  0  1  0  0  0  0  0  0  0  0  0
  159.3170   48.2140  143.4071 O   0  0  0  0  0  0  0  0  0  0  0  0
  160.3556   47.2351  145.3048 C   0  0  1  0  0  0  0  0  0  0  0  0
  161.5307   47.4390  146.0882 O   0  0  0  0  0  0  0  0  0  0  0  0
  159.2254   48.1457  145.7471 C   0  0  1  0  0  0  0  0  0  0  0  0
  159.7338   49.4011  146.2068 O   0  0  0  0  0  0  0  0  0  0  0  0
  158.4135   48.4146  144.4973 C   0  0  2  0  0  0  0  0  0  0  0  0
  157.3153   47.4217  144.3962 N   0  0  0  0  0  0  0  0  0  0  0  0
  156.7386   47.0011  143.2529 C   0  0  0  0  0  0  0  0  0  0  0  0
  155.7671   46.0751  143.4854 N   0  0  0  0  0  0  0  0  0  0  0  0
  155.7141   45.8823  144.8129 C   0  0  0  0  0  0  0  0  0  0  0  0
  154.9074   45.0516  145.7430 C   0  0  0  0  0  0  0  0  0  0  0  0
  154.0250   44.2628  145.3417 O   0  0  0  0  0  0  0  0  0  0  0  0
  155.1724   45.1535  147.0465 N   0  0  0  0  0  0  0  0  0  0  0  0
  156.1136   45.9807  147.5268 C   0  0  0  0  0  0  0  0  0  0  0  0
  156.2868   46.0136  148.8565 N   0  0  0  0  0  0  0  0  0  0  0  0
  156.8826   46.7747  146.7454 N   0  0  0  0  0  0  0  0  0  0  0  0
  156.7333   46.7724  145.4041 C   0  0  0  0  0  0  0  0  0  0  0  0
  1  3  2  1  0  0  0
  1 32  1  0  0  0  0
  1  2  1  0  0  0  0
  1  4  1  0  0  0  0
  4  5  1  0  0  0  0
  6  5  1  1  0  0  0
  7  6  1  0  0  0  0
  8  6  1  0  0  0  0
  8 10  1  0  0  0  0
  8  9  1  6  0  0  0
 10 11  1  6  0  0  0
 12 13  1  1  0  0  0
 12  7  1  0  0  0  0
 12 10  1  0  0  0  0
 14 13  1  0  0  0  0
 15 16  1  0  0  0  0
 15 14  2  0  0  0  0
 16 23  2  0  0  0  0
 17 16  1  0  0  0  0
 17 19  1  0  0  0  0
 18 17  2  0  0  0  0
 19 20  2  0  0  0  0
 20 22  1  0  0  0  0
 20 21  1  0  0  0  0
 23 13  1  0  0  0  0
 23 22  1  0  0  0  0
 24 25  2  6  0  0  0
 24  9  1  0  0  0  0
 24 26  1  0  0  0  0
 27 28  1  0  0  0  0
 27 24  1  0  0  0  0
 29 30  1  6  0  0  0
 29 28  1  0  0  0  0
 31 32  1  1  0  0  0
 31 29  1  0  0  0  0
 33 34  1  6  0  0  0
 33 35  1  0  0  0  0
 33 31  1  0  0  0  0
 35 36  1  6  0  0  0
 35 30  1  0  0  0  0
 36 37  1  0  0  0  0
 38 37  2  0  0  0  0
 39 38  1  0  0  0  0
 40 41  2  0  0  0  0
 40 39  1  0  0  0  0
 42 40  1  0  0  0  0
 43 42  2  0  0  0  0
 43 45  1  0  0  0  0
 44 43  1  0  0  0  0
 45 46  1  0  0  0  0
 46 39  2  0  0  0  0
 46 36  1  0  0  0  0
M  END
>  <CHROM.1>
164.12160509,-37.79264676,159.64374619,44.68489030,146.16369378,-1.22880395
0.49620288,-1.02231463

>  <Name>
lig.pdb

>  <RI>
0

>  <Rbt.Current_Directory>
/home/itssahil/PROJECTS/Mol_Feturizer/New_Systems/rnas/4yb0

>  <Rbt.Executable>
rbdock ($Id: //depot/dev/client3/rdock/2013.1/src/exe/rbdock.cxx#4 $)

>  <Rbt.Library>
libRbt.so (2013.1, Build901 2013/11/27)

>  <Rbt.Parameter_File>
/export/apps/rDock/src/rDock_2013.1_src/data/scripts/dock_solv.prm

>  <Rbt.Receptor>
prm/pocket_docking_6.prm

>  <SCORE>
-19.5411

>  <SCORE.INTER>
-19.7438

>  <SCORE.INTER.CONST>
1

>  <SCORE.INTER.POLAR>
0

>  <SCORE.INTER.ROT>
2

>  <SCORE.INTER.SOLV>
13.7296

>  <SCORE.INTER.VDW>
-22.6724

>  <SCORE.INTER.norm>
-0.429213

>  <SCORE.INTRA>
0.202704

>  <SCORE.INTRA.DIHEDRAL>
-0.0293026

>  <SCORE.INTRA.DIHEDRAL.0>
4.74153

>  <SCORE.INTRA.POLAR>
0

>  <SCORE.INTRA.POLAR.0>
0

>  <SCORE.INTRA.REPUL>
0.00712819

>  <SCORE.INTRA.REPUL.0>
0

>  <SCORE.INTRA.SOLV>
0.422124

>  <SCORE.INTRA.SOLV.lig_0>
-60.4375

>  <SCORE.INTRA.VDW>
-0.0293478

>  <SCORE.INTRA.VDW.0>
-1.83689

>  <SCORE.INTRA.norm>
0.00440661

>  <SCORE.RESTR>
0

>  <SCORE.RESTR.CAVITY>
0

>  <SCORE.RESTR.norm>
0

>  <SCORE.SYSTEM>
0

>  <SCORE.SYSTEM.CONST>
0

>  <SCORE.SYSTEM.DIHEDRAL>
0

>  <SCORE.SYSTEM.SOLV>
0

>  <SCORE.SYSTEM.norm>
0

>  <SCORE.heavy>
46

>  <SCORE.norm>
-0.424807

>  <RMSD>
5.933

$$$$
lig.pdb
 OpenBabel11021811523D
libRbt.so/2013.1/901 2013/11/27
 46 52  0  0  0  0  0  0  0  0999 V2000
  162.0792   46.8260  146.6994 P   0  0  2  0  0  0  0  0  0  0  0  0
  163.4885   47.2019  147.1022 O   0  0  0  0  0  0  0  0  0  0  0  0
  160.9802   47.1819  147.6672 O   0  0  0  0  0  0  0  0  0  0  0  0
  161.9663   45.2581  146.3619 O   0  0  0  0  0  0  0  0  0  0  0  0
  163.1203   44.4346  146.2561 C   0  0  0  0  0  0  0  0  0  0  0  0
  162.7673   43.1321  145.5571 C   0  0  1  0  0  0  0  0  0  0  0  0
  162.6725   42.1151  146.5443 O   0  0  0  0  0  0  0  0  0  0  0  0
  161.4405   43.1240  144.8085 C   0  0  1  0  0  0  0  0  0  0  0  0
  161.6784   43.2339  143.4129 O   0  0  0  0  0  0  0  0  0  0  0  0
  160.8892   41.7429  145.0836 C   0  0  1  0  0  0  0  0  0  0  0  0
  161.3385   40.8371  144.0738 O   0  0  0  0  0  0  0  0  0  0  0  0
  161.5200   41.3045  146.3733 C   0  0  2  0  0  0  0  0  0  0  0  0
  160.5823   41.5724  147.4895 N   0  0  0  0  0  0  0  0  0  0  0  0
  160.1006   42.7789  147.8356 C   0  0  0  0  0  0  0  0  0  0  0  0
  159.2806   42.6754  148.9089 N   0  0  0  0  0  0  0  0  0  0  0  0
  159.2270   41.3807  149.2689 C   0  0  0  0  0  0  0  0  0  0  0  0
  158.5443   40.5873  150.3180 C   0  0  0  0  0  0  0  0  0  0  0  0
  157.7985   41.1526  151.1536 O   0  0  0  0  0  0  0  0  0  0  0  0
  158.7554   39.2601  150.3387 N   0  0  0  0  0  0  0  0  0  0  0  0
  159.5580   38.6585  149.4404 C   0  0  0  0  0  0  0  0  0  0  0  0
  159.7297   37.3193  149.5063 N   0  0  0  0  0  0  0  0  0  0  0  0
  160.2104   39.3220  148.4591 N   0  0  0  0  0  0  0  0  0  0  0  0
  160.0873   40.6599  148.3254 C   0  0  0  0  0  0  0  0  0  0  0  0
  160.5066   43.5309  142.3290 P   0  0  2  0  0  0  0  0  0  0  0  0
  159.3548   42.5866  142.5731 O   0  0  0  0  0  0  0  0  0  0  0  0
  161.1915   43.5924  140.9766 O   0  0  0  0  0  0  0  0  0  0  0  0
  160.0155   45.0118  142.7474 O   0  0  0  0  0  0  0  0  0  0  0  0
  160.7624   46.1563  142.3368 C   0  0  0  0  0  0  0  0  0  0  0  0
  160.4572   47.4058  143.1688 C   0  0  1  0  0  0  0  0  0  0  0  0
  159.1681   47.9087  142.8108 O   0  0  0  0  0  0  0  0  0  0  0  0
  160.4429   47.1890  144.6804 C   0  0  1  0  0  0  0  0  0  0  0  0
  161.6994   47.4959  145.2829 O   0  0  0  0  0  0  0  0  0  0  0  0
  159.3580   48.1480  145.1336 C   0  0  1  0  0  0  0  0  0  0  0  0
  159.8958   49.4537  145.3612 O   0  0  0  0  0  0  0  0  0  0  0  0
  158.3980   48.2493  143.9667 C   0  0  2  0  0  0  0  0  0  0  0  0
  157.3130   47.2499  144.1289 N   0  0  0  0  0  0  0  0  0  0  0  0
  156.5199   46.7837  143.1440 C   0  0  0  0  0  0  0  0  0  0  0  0
  155.6263   45.8645  143.6042 N   0  0  0  0  0  0  0  0  0  0  0  0
  155.8471   45.7232  144.9209 C   0  0  0  0  0  0  0  0  0  0  0  0
  155.2560   44.9267  146.0263 C   0  0  0  0  0  0  0  0  0  0  0  0
  154.3188   44.1203  145.8433 O   0  0  0  0  0  0  0  0  0  0  0  0
  155.7800   45.0798  147.2435 N   0  0  0  0  0  0  0  0  0  0  0  0
  156.7904   45.9277  147.4904 C   0  0  0  0  0  0  0  0  0  0  0  0
  157.2306   46.0127  148.7546 N   0  0  0  0  0  0  0  0  0  0  0  0
  157.3753   46.6931  146.5395 N   0  0  0  0  0  0  0  0  0  0  0  0
  156.9557   46.6385  145.2580 C   0  0  0  0  0  0  0  0  0  0  0  0
  1  3  2  1  0  0  0
  1 32  1  0  0  0  0
  1  2  1  0  0  0  0
  1  4  1  0  0  0  0
  4  5  1  0  0  0  0
  6  5  1  1  0  0  0
  7  6  1  0  0  0  0
  8  6  1  0  0  0  0
  8 10  1  0  0  0  0
  8  9  1  6  0  0  0
 10 11  1  6  0  0  0
 12 13  1  1  0  0  0
 12  7  1  0  0  0  0
 12 10  1  0  0  0  0
 14 13  1  0  0  0  0
 15 16  1  0  0  0  0
 15 14  2  0  0  0  0
 16 23  2  0  0  0  0
 17 16  1  0  0  0  0
 17 19  1  0  0  0  0
 18 17  2  0  0  0  0
 19 20  2  0  0  0  0
 20 22  1  0  0  0  0
 20 21  1  0  0  0  0
 23 13  1  0  0  0  0
 23 22  1  0  0  0  0
 24 25  2  1  0  0  0
 24  9  1  0  0  0  0
 24 26  1  0  0  0  0
 27 28  1  0  0  0  0
 27 24  1  0  0  0  0
 29 30  1  6  0  0  0
 29 28  1  0  0  0  0
 31 32  1  1  0  0  0
 31 29  1  0  0  0  0
 33 34  1  6  0  0  0
 33 35  1  0  0  0  0
 33 31  1  0  0  0  0
 35 36  1  1  0  0  0
 35 30  1  0  0  0  0
 36 37  1  0  0  0  0
 38 37  2  0  0  0  0
 39 38  1  0  0  0  0
 40 41  2  0  0  0  0
 40 39  1  0  0  0  0
 42 40  1  0  0  0  0
 43 42  2  0  0  0  0
 43 45  1  0  0  0  0
 44 43  1  0  0  0  0
 45 46  1  0  0  0  0
 46 39  2  0  0  0  0
 46 36  1  0  0  0  0
M  END
>  <CHROM.1>
55.24803538,-44.99891096,159.67886563,44.29494063,145.85268363,-1.61553974
-0.47567306,2.50481901

>  <Name>
lig.pdb

>  <RI>
0

>  <Rbt.Current_Directory>
/home/itssahil/PROJECTS/Mol_Feturizer/New_Systems/rnas/4yb0

>  <Rbt.Executable>
rbdock ($Id: //depot/dev/client3/rdock/2013.1/src/exe/rbdock.cxx#4 $)

>  <Rbt.Library>
libRbt.so (2013.1, Build901 2013/11/27)

>  <Rbt.Parameter_File>
/export/apps/rDock/src/rDock_2013.1_src/data/scripts/dock_solv.prm

>  <Rbt.Receptor>
prm/pocket_docking_5.prm

>  <SCORE>
-19.4412

>  <SCORE.INTER>
-19.5078

>  <SCORE.INTER.CONST>
1

>  <SCORE.INTER.POLAR>
0

>  <SCORE.INTER.ROT>
2

>  <SCORE.INTER.SOLV>
15.7188

>  <SCORE.INTER.VDW>
-23.1781

>  <SCORE.INTER.norm>
-0.424082

>  <SCORE.INTRA>
0.0644338

>  <SCORE.INTRA.DIHEDRAL>
0.00665992

>  <SCORE.INTRA.DIHEDRAL.0>
4.74153

>  <SCORE.INTRA.POLAR>
0

>  <SCORE.INTRA.POLAR.0>
0

>  <SCORE.INTRA.REPUL>
0

>  <SCORE.INTRA.REPUL.0>
0

>  <SCORE.INTRA.SOLV>
0.270299

>  <SCORE.INTRA.SOLV.lig_0>
-60.4375

>  <SCORE.INTRA.VDW>
-0.0740456

>  <SCORE.INTRA.VDW.0>
-1.83689

>  <SCORE.INTRA.norm>
0.00140073

>  <SCORE.RESTR>
0.00217156

>  <SCORE.RESTR.CAVITY>
0.00217156

>  <SCORE.RESTR.norm>
4.72078e-05

>  <SCORE.SYSTEM>
0

>  <SCORE.SYSTEM.CONST>
0

>  <SCORE.SYSTEM.DIHEDRAL>
0

>  <SCORE.SYSTEM.SOLV>
0

>  <SCORE.SYSTEM.norm>
0

>  <SCORE.heavy>
46

>  <SCORE.norm>
-0.422634

>  <RMSD>
5.962

$$$$
lig.pdb
 OpenBabel11021811523D
libRbt.so/2013.1/901 2013/11/27
 46 52  0  0  0  0  0  0  0  0999 V2000
  162.0849   46.9631  146.7201 P   0  0  2  0  0  0  0  0  0  0  0  0
  163.4944   47.3622  147.0992 O   0  0  0  0  0  0  0  0  0  0  0  0
  160.9942   47.3177  147.6976 O   0  0  0  0  0  0  0  0  0  0  0  0
  161.9879   45.3895  146.4046 O   0  0  0  0  0  0  0  0  0  0  0  0
  163.1510   44.5795  146.2942 C   0  0  0  0  0  0  0  0  0  0  0  0
  162.8057   43.2635  145.6169 C   0  0  1  0  0  0  0  0  0  0  0  0
  162.7371   42.2585  146.6184 O   0  0  0  0  0  0  0  0  0  0  0  0
  161.4694   43.2286  144.8862 C   0  0  1  0  0  0  0  0  0  0  0  0
  161.6877   43.3232  143.4862 O   0  0  0  0  0  0  0  0  0  0  0  0
  160.9398   41.8443  145.1865 C   0  0  1  0  0  0  0  0  0  0  0  0
  161.3875   40.9311  144.1826 O   0  0  0  0  0  0  0  0  0  0  0  0
  161.5929   41.4311  146.4733 C   0  0  2  0  0  0  0  0  0  0  0  0
  160.6666   41.7017  147.5982 N   0  0  0  0  0  0  0  0  0  0  0  0
  160.2843   42.9186  148.0230 C   0  0  0  0  0  0  0  0  0  0  0  0
  159.4443   42.8129  149.0805 N   0  0  0  0  0  0  0  0  0  0  0  0
  159.2764   41.5060  149.3501 C   0  0  0  0  0  0  0  0  0  0  0  0
  158.5149   40.7045  150.3369 C   0  0  0  0  0  0  0  0  0  0  0  0
  157.8087   41.2733  151.2039 O   0  0  0  0  0  0  0  0  0  0  0  0
  158.6125   39.3658  150.2678 N   0  0  0  0  0  0  0  0  0  0  0  0
  159.3731   38.7602  149.3362 C   0  0  0  0  0  0  0  0  0  0  0  0
  159.4298   37.4098  149.3110 N   0  0  0  0  0  0  0  0  0  0  0  0
  160.0924   39.4306  148.4079 N   0  0  0  0  0  0  0  0  0  0  0  0
  160.0849   40.7801  148.3657 C   0  0  0  0  0  0  0  0  0  0  0  0
  160.4980   43.5909  142.4142 P   0  0  2  0  0  0  0  0  0  0  0  0
  159.3618   42.6352  142.6858 O   0  0  0  0  0  0  0  0  0  0  0  0
  161.1643   43.6433  141.0521 O   0  0  0  0  0  0  0  0  0  0  0  0
  159.9933   45.0708  142.8198 O   0  0  0  0  0  0  0  0  0  0  0  0
  160.7200   46.2192  142.3844 C   0  0  0  0  0  0  0  0  0  0  0  0
  160.4095   47.4755  143.2041 C   0  0  1  0  0  0  0  0  0  0  0  0
  159.1095   47.9572  142.8567 O   0  0  0  0  0  0  0  0  0  0  0  0
  160.4178   47.2785  144.7184 C   0  0  1  0  0  0  0  0  0  0  0  0
  161.6780   47.6093  145.3002 O   0  0  0  0  0  0  0  0  0  0  0  0
  159.3266   48.2295  145.1735 C   0  0  1  0  0  0  0  0  0  0  0  0
  159.8504   49.5449  145.3769 O   0  0  0  0  0  0  0  0  0  0  0  0
  158.3502   48.3031  144.0182 C   0  0  2  0  0  0  0  0  0  0  0  0
  157.2804   47.2923  144.2078 N   0  0  0  0  0  0  0  0  0  0  0  0
  156.5646   46.7113  143.2246 C   0  0  0  0  0  0  0  0  0  0  0  0
  155.6644   45.8142  143.7145 N   0  0  0  0  0  0  0  0  0  0  0  0
  155.8016   45.8053  145.0499 C   0  0  0  0  0  0  0  0  0  0  0  0
  155.1581   45.1006  146.1879 C   0  0  0  0  0  0  0  0  0  0  0  0
  154.2539   44.2532  146.0252 O   0  0  0  0  0  0  0  0  0  0  0  0
  155.5976   45.3840  147.4151 N   0  0  0  0  0  0  0  0  0  0  0  0
  156.5696   46.2810  147.6419 C   0  0  0  0  0  0  0  0  0  0  0  0
  156.9240   46.4987  148.9171 N   0  0  0  0  0  0  0  0  0  0  0  0
  157.1976   46.9694  146.6600 N   0  0  0  0  0  0  0  0  0  0  0  0
  156.8643   46.7807  145.3660 C   0  0  0  0  0  0  0  0  0  0  0  0
  1  3  2  1  0  0  0
  1 32  1  0  0  0  0
  1  2  1  0  0  0  0
  1  4  1  0  0  0  0
  4  5  1  0  0  0  0
  6  5  1  1  0  0  0
  7  6  1  0  0  0  0
  8  6  1  0  0  0  0
  8 10  1  0  0  0  0
  8  9  1  6  0  0  0
 10 11  1  6  0  0  0
 12 13  1  1  0  0  0
 12  7  1  0  0  0  0
 12 10  1  0  0  0  0
 14 13  1  0  0  0  0
 15 16  1  0  0  0  0
 15 14  2  0  0  0  0
 16 23  2  0  0  0  0
 17 16  1  0  0  0  0
 17 19  1  0  0  0  0
 18 17  2  0  0  0  0
 19 20  2  0  0  0  0
 20 22  1  0  0  0  0
 20 21  1  0  0  0  0
 23 13  1  0  0  0  0
 23 22  1  0  0  0  0
 24 25  2  1  0  0  0
 24  9  1  0  0  0  0
 24 26  1  0  0  0  0
 27 28  1  0  0  0  0
 27 24  1  0  0  0  0
 29 30  1  6  0  0  0
 29 28  1  0  0  0  0
 31 32  1  1  0  0  0
 31 29  1  0  0  0  0
 33 34  1  6  0  0  0
 33 35  1  0  0  0  0
 33 31  1  0  0  0  0
 35 36  1  1  0  0  0
 35 30  1  0  0  0  0
 36 37  1  0  0  0  0
 38 37  2  0  0  0  0
 39 38  1  0  0  0  0
 40 41  2  0  0  0  0
 40 39  1  0  0  0  0
 42 40  1  0  0  0  0
 43 42  2  0  0  0  0
 43 45  1  0  0  0  0
 44 43  1  0  0  0  0
 45 46  1  0  0  0  0
 46 39  2  0  0  0  0
 46 36  1  0  0  0  0
M  END
>  <CHROM.1>
47.81076378,-38.43962647,159.65118686,44.41240965,145.91802725,-1.61291568
-0.48701301,2.52190071

>  <Name>
lig.pdb

>  <RI>
0

>  <Rbt.Current_Directory>
/home/itssahil/PROJECTS/Mol_Feturizer/New_Systems/rnas/4yb0

>  <Rbt.Executable>
rbdock ($Id: //depot/dev/client3/rdock/2013.1/src/exe/rbdock.cxx#4 $)

>  <Rbt.Library>
libRbt.so (2013.1, Build901 2013/11/27)

>  <Rbt.Parameter_File>
/export/apps/rDock/src/rDock_2013.1_src/data/scripts/dock_solv.prm

>  <Rbt.Receptor>
prm/pocket_docking_5.prm

>  <SCORE>
-19.3185

>  <SCORE.INTER>
-19.2896

>  <SCORE.INTER.CONST>
1

>  <SCORE.INTER.POLAR>
0

>  <SCORE.INTER.ROT>
2

>  <SCORE.INTER.SOLV>
15.75

>  <SCORE.INTER.VDW>
-23.0431

>  <SCORE.INTER.norm>
-0.41934

>  <SCORE.INTRA>
-0.0288788

>  <SCORE.INTRA.DIHEDRAL>
-0.0217484

>  <SCORE.INTRA.DIHEDRAL.0>
4.74153

>  <SCORE.INTRA.POLAR>
0

>  <SCORE.INTRA.POLAR.0>
0

>  <SCORE.INTRA.REPUL>
0.00454567

>  <SCORE.INTRA.REPUL.0>
0

>  <SCORE.INTRA.SOLV>
0.0550762

>  <SCORE.INTRA.SOLV.lig_0>
-60.4375

>  <SCORE.INTRA.VDW>
-0.068271

>  <SCORE.INTRA.VDW.0>
-1.83689

>  <SCORE.INTRA.norm>
-0.000627799

>  <SCORE.RESTR>
0

>  <SCORE.RESTR.CAVITY>
0

>  <SCORE.RESTR.norm>
0

>  <SCORE.SYSTEM>
0

>  <SCORE.SYSTEM.CONST>
0

>  <SCORE.SYSTEM.DIHEDRAL>
0

>  <SCORE.SYSTEM.SOLV>
0

>  <SCORE.SYSTEM.norm>
0

>  <SCORE.heavy>
46

>  <SCORE.norm>
-0.419967

>  <RMSD>
5.973

$$$$
lig.pdb
 OpenBabel11021811523D
libRbt.so/2013.1/901 2013/11/27
 46 52  0  0  0  0  0  0  0  0999 V2000
  157.3547   48.9649  148.7091 P   0  0  2  0  0  0  0  0  0  0  0  0
  156.6747   49.3702  149.9987 O   0  0  0  0  0  0  0  0  0  0  0  0
  157.0534   49.8014  147.4923 O   0  0  0  0  0  0  0  0  0  0  0  0
  157.0572   47.4262  148.3501 O   0  0  0  0  0  0  0  0  0  0  0  0
  156.4209   46.5554  149.2763 C   0  0  0  0  0  0  0  0  0  0  0  0
  156.6194   45.1097  148.8514 C   0  0  1  0  0  0  0  0  0  0  0  0
  155.4086   44.6539  148.2646 O   0  0  0  0  0  0  0  0  0  0  0  0
  157.7109   44.8705  147.8161 C   0  0  1  0  0  0  0  0  0  0  0  0
  158.8587   44.3243  148.4492 O   0  0  0  0  0  0  0  0  0  0  0  0
  157.1186   43.8069  146.9189 C   0  0  1  0  0  0  0  0  0  0  0  0
  157.4616   42.5126  147.4181 O   0  0  0  0  0  0  0  0  0  0  0  0
  155.6301   43.9455  147.0548 C   0  0  2  0  0  0  0  0  0  0  0  0
  155.1119   44.7575  145.9283 N   0  0  0  0  0  0  0  0  0  0  0  0
  155.7981   45.7036  145.2639 C   0  0  0  0  0  0  0  0  0  0  0  0
  155.0272   46.2652  144.3019 N   0  0  0  0  0  0  0  0  0  0  0  0
  153.8187   45.6763  144.3398 C   0  0  0  0  0  0  0  0  0  0  0  0
  152.5435   45.7976  143.5948 C   0  0  0  0  0  0  0  0  0  0  0  0
  152.4301   46.6345  142.6670 O   0  0  0  0  0  0  0  0  0  0  0  0
  151.5296   44.9898  143.9496 N   0  0  0  0  0  0  0  0  0  0  0  0
  151.6559   44.0943  144.9472 C   0  0  0  0  0  0  0  0  0  0  0  0
  150.6040   43.3041  145.2577 N   0  0  0  0  0  0  0  0  0  0  0  0
  152.7895   43.9323  145.6666 N   0  0  0  0  0  0  0  0  0  0  0  0
  153.8844   44.6812  145.4147 C   0  0  0  0  0  0  0  0  0  0  0  0
  160.3031   44.1944  147.7191 P   0  0  2  0  0  0  0  0  0  0  0  0
  160.1182   43.5527  146.3654 O   0  0  0  0  0  0  0  0  0  0  0  0
  161.2404   43.5895  148.7474 O   0  0  0  0  0  0  0  0  0  0  0  0
  160.7059   45.7390  147.4716 O   0  0  0  0  0  0  0  0  0  0  0  0
  161.2517   46.5158  148.5370 C   0  0  0  0  0  0  0  0  0  0  0  0
  161.1468   48.0252  148.2977 C   0  0  1  0  0  0  0  0  0  0  0  0
  162.0965   48.4132  147.3026 O   0  0  0  0  0  0  0  0  0  0  0  0
  159.7807   48.5109  147.8180 C   0  0  1  0  0  0  0  0  0  0  0  0
  158.9562   48.9561  148.8942 O   0  0  0  0  0  0  0  0  0  0  0  0
  160.1517   49.6527  146.8903 C   0  0  1  0  0  0  0  0  0  0  0  0
  160.2914   50.8755  147.6191 O   0  0  0  0  0  0  0  0  0  0  0  0
  161.5156   49.2947  146.3380 C   0  0  2  0  0  0  0  0  0  0  0  0
  161.3554   48.5622  145.0574 N   0  0  0  0  0  0  0  0  0  0  0  0
  160.7751   47.3548  144.9096 C   0  0  0  0  0  0  0  0  0  0  0  0
  160.7678   46.9510  143.6088 N   0  0  0  0  0  0  0  0  0  0  0  0
  161.3518   47.9228  142.8898 C   0  0  0  0  0  0  0  0  0  0  0  0
  161.6854   48.1434  141.4595 C   0  0  0  0  0  0  0  0  0  0  0  0
  161.3970   47.3147  140.5695 O   0  0  0  0  0  0  0  0  0  0  0  0
  162.2930   49.2869  141.1386 N   0  0  0  0  0  0  0  0  0  0  0  0
  162.6181   50.2108  142.0559 C   0  0  0  0  0  0  0  0  0  0  0  0
  163.2399   51.3181  141.6239 N   0  0  0  0  0  0  0  0  0  0  0  0
  162.3559   50.0792  143.3774 N   0  0  0  0  0  0  0  0  0  0  0  0
  161.7367   48.9769  143.8495 C   0  0  0  0  0  0  0  0  0  0  0  0
  1  3  2  6  0  0  0
  1 32  1  0  0  0  0
  1  2  1  0  0  0  0
  1  4  1  0  0  0  0
  4  5  1  0  0  0  0
  6  5  1  6  0  0  0
  7  6  1  0  0  0  0
  8  6  1  0  0  0  0
  8 10  1  0  0  0  0
  8  9  1  1  0  0  0
 10 11  1  1  0  0  0
 12 13  1  6  0  0  0
 12  7  1  0  0  0  0
 12 10  1  0  0  0  0
 14 13  1  0  0  0  0
 15 16  1  0  0  0  0
 15 14  2  0  0  0  0
 16 23  2  0  0  0  0
 17 16  1  0  0  0  0
 17 19  1  0  0  0  0
 18 17  2  0  0  0  0
 19 20  2  0  0  0  0
 20 22  1  0  0  0  0
 20 21  1  0  0  0  0
 23 13  1  0  0  0  0
 23 22  1  0  0  0  0
 24 25  2  6  0  0  0
 24  9  1  0  0  0  0
 24 26  1  0  0  0  0
 27 28  1  0  0  0  0
 27 24  1  0  0  0  0
 29 30  1  6  0  0  0
 29 28  1  0  0  0  0
 31 32  1  1  0  0  0
 31 29  1  0  0  0  0
 33 34  1  1  0  0  0
 33 35  1  0  0  0  0
 33 31  1  0  0  0  0
 35 36  1  6  0  0  0
 35 30  1  0  0  0  0
 36 37  1  0  0  0  0
 38 37  2  0  0  0  0
 39 38  1  0  0  0  0
 40 41  2  0  0  0  0
 40 39  1  0  0  0  0
 42 40  1  0  0  0  0
 43 42  2  0  0  0  0
 43 45  1  0  0  0  0
 44 43  1  0  0  0  0
 45 46  1  0  0  0  0
 46 39  2  0  0  0  0
 46 36  1  0  0  0  0
M  END
>  <CHROM.1>
87.26422926,50.32216607,158.22727849,46.73738006,146.12598898,-2.87027280
-0.42648728,-1.30035900

>  <Name>
lig.pdb

>  <RI>
0

>  <Rbt.Current_Directory>
/home/itssahil/PROJECTS/Mol_Feturizer/New_Systems/rnas/4yb0

>  <Rbt.Executable>
rbdock ($Id: //depot/dev/client3/rdock/2013.1/src/exe/rbdock.cxx#4 $)

>  <Rbt.Library>
libRbt.so (2013.1, Build901 2013/11/27)

>  <Rbt.Parameter_File>
/export/apps/rDock/src/rDock_2013.1_src/data/scripts/dock_solv.prm

>  <Rbt.Receptor>
prm/pocket_docking_8.prm

>  <SCORE>
-24.5223

>  <SCORE.INTER>
-24.893

>  <SCORE.INTER.CONST>
1

>  <SCORE.INTER.POLAR>
0

>  <SCORE.INTER.ROT>
2

>  <SCORE.INTER.SOLV>
18.6268

>  <SCORE.INTER.VDW>
-27.7376

>  <SCORE.INTER.norm>
-0.541151

>  <SCORE.INTRA>
0.370623

>  <SCORE.INTRA.DIHEDRAL>
0.134429

>  <SCORE.INTRA.DIHEDRAL.0>
4.74153

>  <SCORE.INTRA.POLAR>
0

>  <SCORE.INTRA.POLAR.0>
0

>  <SCORE.INTRA.REPUL>
0

>  <SCORE.INTRA.REPUL.0>
0

>  <SCORE.INTRA.SOLV>
-0.0332822

>  <SCORE.INTRA.SOLV.lig_0>
-60.4375

>  <SCORE.INTRA.VDW>
0.32005

>  <SCORE.INTRA.VDW.0>
-1.83689

>  <SCORE.INTRA.norm>
0.00805703

>  <SCORE.RESTR>
0

>  <SCORE.RESTR.CAVITY>
0

>  <SCORE.RESTR.norm>
0

>  <SCORE.SYSTEM>
0

>  <SCORE.SYSTEM.CONST>
0

>  <SCORE.SYSTEM.DIHEDRAL>
0

>  <SCORE.SYSTEM.SOLV>
0

>  <SCORE.SYSTEM.norm>
0

>  <SCORE.heavy>
46

>  <SCORE.norm>
-0.533094

>  <RMSD>
5.992

$$$$
lig.pdb
 OpenBabel11021811523D
libRbt.so/2013.1/901 2013/11/27
 46 52  0  0  0  0  0  0  0  0999 V2000
  157.1987   48.9911  148.6971 P   0  0  2  0  0  0  0  0  0  0  0  0
  156.4894   49.3574  149.9825 O   0  0  0  0  0  0  0  0  0  0  0  0
  156.8674   49.8175  147.4812 O   0  0  0  0  0  0  0  0  0  0  0  0
  156.9787   47.4415  148.3293 O   0  0  0  0  0  0  0  0  0  0  0  0
  156.3776   46.5369  149.2466 C   0  0  0  0  0  0  0  0  0  0  0  0
  156.6490   45.1044  148.8175 C   0  0  1  0  0  0  0  0  0  0  0  0
  155.4665   44.5934  148.2187 O   0  0  0  0  0  0  0  0  0  0  0  0
  157.7593   44.9227  147.7904 C   0  0  1  0  0  0  0  0  0  0  0  0
  158.9269   44.4296  148.4309 O   0  0  0  0  0  0  0  0  0  0  0  0
  157.2264   43.8358  146.8840 C   0  0  1  0  0  0  0  0  0  0  0  0
  157.6273   42.5574  147.3808 O   0  0  0  0  0  0  0  0  0  0  0  0
  155.7318   43.9019  147.0079 C   0  0  2  0  0  0  0  0  0  0  0  0
  155.1843   44.6930  145.8805 N   0  0  0  0  0  0  0  0  0  0  0  0
  155.8681   45.5883  145.1468 C   0  0  0  0  0  0  0  0  0  0  0  0
  155.0681   46.1448  144.2058 N   0  0  0  0  0  0  0  0  0  0  0  0
  153.8427   45.6040  144.3280 C   0  0  0  0  0  0  0  0  0  0  0  0
  152.5350   45.7476  143.6459 C   0  0  0  0  0  0  0  0  0  0  0  0
  152.4029   46.5551  142.6949 O   0  0  0  0  0  0  0  0  0  0  0  0
  151.5128   44.9920  144.0825 N   0  0  0  0  0  0  0  0  0  0  0  0
  151.6594   44.1279  145.1047 C   0  0  0  0  0  0  0  0  0  0  0  0
  150.5975   43.3898  145.4982 N   0  0  0  0  0  0  0  0  0  0  0  0
  152.8230   43.9482  145.7699 N   0  0  0  0  0  0  0  0  0  0  0  0
  153.9293   44.6455  145.4341 C   0  0  0  0  0  0  0  0  0  0  0  0
  160.3817   44.3728  147.7124 P   0  0  2  0  0  0  0  0  0  0  0  0
  160.2392   43.7290  146.3547 O   0  0  0  0  0  0  0  0  0  0  0  0
  161.3387   43.8092  148.7461 O   0  0  0  0  0  0  0  0  0  0  0  0
  160.7116   45.9361  147.4747 O   0  0  0  0  0  0  0  0  0  0  0  0
  161.2106   46.7335  148.5477 C   0  0  0  0  0  0  0  0  0  0  0  0
  161.0349   48.2372  148.3137 C   0  0  1  0  0  0  0  0  0  0  0  0
  161.9729   48.6750  147.3283 O   0  0  0  0  0  0  0  0  0  0  0  0
  159.6510   48.6586  147.8246 C   0  0  1  0  0  0  0  0  0  0  0  0
  158.7972   49.0588  148.8956 O   0  0  0  0  0  0  0  0  0  0  0  0
  159.9740   49.8211  146.9046 C   0  0  1  0  0  0  0  0  0  0  0  0
  160.0486   51.0459  147.6395 O   0  0  0  0  0  0  0  0  0  0  0  0
  161.3581   49.5317  146.3623 C   0  0  2  0  0  0  0  0  0  0  0  0
  161.2439   48.7981  145.0774 N   0  0  0  0  0  0  0  0  0  0  0  0
  160.6267   47.6130  144.9010 C   0  0  0  0  0  0  0  0  0  0  0  0
  160.6790   47.2019  143.6035 N   0  0  0  0  0  0  0  0  0  0  0  0
  161.3409   48.1459  142.9158 C   0  0  0  0  0  0  0  0  0  0  0  0
  161.7651   48.3447  141.5065 C   0  0  0  0  0  0  0  0  0  0  0  0
  161.4967   47.5223  140.6045 O   0  0  0  0  0  0  0  0  0  0  0  0
  162.4342   49.4619  141.2169 N   0  0  0  0  0  0  0  0  0  0  0  0
  162.7413   50.3783  142.1480 C   0  0  0  0  0  0  0  0  0  0  0  0
  163.4295   51.4581  141.7484 N   0  0  0  0  0  0  0  0  0  0  0  0
  162.3982   50.2650  143.4525 N   0  0  0  0  0  0  0  0  0  0  0  0
  161.7104   49.1904  143.8922 C   0  0  0  0  0  0  0  0  0  0  0  0
  1  3  2  6  0  0  0
  1 32  1  0  0  0  0
  1  2  1  0  0  0  0
  1  4  1  0  0  0  0
  4  5  1  0  0  0  0
  6  5  1  6  0  0  0
  7  6  1  0  0  0  0
  8  6  1  0  0  0  0
  8 10  1  0  0  0  0
  8  9  1  1  0  0  0
 10 11  1  1  0  0  0
 12 13  1  6  0  0  0
 12  7  1  0  0  0  0
 12 10  1  0  0  0  0
 14 13  1  0  0  0  0
 15 16  1  0  0  0  0
 15 14  2  0  0  0  0
 16 23  2  0  0  0  0
 17 16  1  0  0  0  0
 17 19  1  0  0  0  0
 18 17  2  0  0  0  0
 19 20  2  0  0  0  0
 20 22  1  0  0  0  0
 20 21  1  0  0  0  0
 23 13  1  0  0  0  0
 23 22  1  0  0  0  0
 24 25  2  6  0  0  0
 24  9  1  0  0  0  0
 24 26  1  0  0  0  0
 27 28  1  0  0  0  0
 27 24  1  0  0  0  0
 29 30  1  6  0  0  0
 29 28  1  0  0  0  0
 31 32  1  1  0  0  0
 31 29  1  0  0  0  0
 33 34  1  1  0  0  0
 33 35  1  0  0  0  0
 33 31  1  0  0  0  0
 35 36  1  6  0  0  0
 35 30  1  0  0  0  0
 36 37  1  0  0  0  0
 38 37  2  0  0  0  0
 39 38  1  0  0  0  0
 40 41  2  0  0  0  0
 40 39  1  0  0  0  0
 42 40  1  0  0  0  0
 43 42  2  0  0  0  0
 43 45  1  0  0  0  0
 44 43  1  0  0  0  0
 45 46  1  0  0  0  0
 46 39  2  0  0  0  0
 46 36  1  0  0  0  0
M  END
>  <CHROM.1>
93.70095564,56.08576125,158.21604868,46.83156732,146.14004079,-2.85916592
-0.44203322,-1.30562867

>  <Name>
lig.pdb

>  <RI>
0

>  <Rbt.Current_Directory>
/home/itssahil/PROJECTS/Mol_Feturizer/New_Systems/rnas/4yb0

>  <Rbt.Executable>
rbdock ($Id: //depot/dev/client3/rdock/2013.1/src/exe/rbdock.cxx#4 $)

>  <Rbt.Library>
libRbt.so (2013.1, Build901 2013/11/27)

>  <Rbt.Parameter_File>
/export/apps/rDock/src/rDock_2013.1_src/data/scripts/dock_solv.prm

>  <Rbt.Receptor>
prm/pocket_docking_8.prm

>  <SCORE>
-24.4686

>  <SCORE.INTER>
-25.0419

>  <SCORE.INTER.CONST>
1

>  <SCORE.INTER.POLAR>
0

>  <SCORE.INTER.ROT>
2

>  <SCORE.INTER.SOLV>
19.1206

>  <SCORE.INTER.VDW>
-28.0015

>  <SCORE.INTER.norm>
-0.544389

>  <SCORE.INTRA>
0.573322

>  <SCORE.INTRA.DIHEDRAL>
0.116971

>  <SCORE.INTRA.DIHEDRAL.0>
4.74153

>  <SCORE.INTRA.POLAR>
0

>  <SCORE.INTRA.POLAR.0>
0

>  <SCORE.INTRA.REPUL>
0

>  <SCORE.INTRA.REPUL.0>
0

>  <SCORE.INTRA.SOLV>
-0.0395493

>  <SCORE.INTRA.SOLV.lig_0>
-60.4375

>  <SCORE.INTRA.VDW>
0.534611

>  <SCORE.INTRA.VDW.0>
-1.83689

>  <SCORE.INTRA.norm>
0.0124635

>  <SCORE.RESTR>
0

>  <SCORE.RESTR.CAVITY>
0

>  <SCORE.RESTR.norm>
0

>  <SCORE.SYSTEM>
0

>  <SCORE.SYSTEM.CONST>
0

>  <SCORE.SYSTEM.DIHEDRAL>
0

>  <SCORE.SYSTEM.SOLV>
0

>  <SCORE.SYSTEM.norm>
0

>  <SCORE.heavy>
46

>  <SCORE.norm>
-0.531926

>  <RMSD>
6.126

$$$$
lig.pdb
 OpenBabel11021811523D
libRbt.so/2013.1/901 2013/11/27
 46 52  0  0  0  0  0  0  0  0999 V2000
  160.0648   48.9695  147.9810 P   0  0  2  0  0  0  0  0  0  0  0  0
  159.9029   50.3315  148.6201 O   0  0  0  0  0  0  0  0  0  0  0  0
  161.3801   48.6930  147.2995 O   0  0  0  0  0  0  0  0  0  0  0  0
  158.8814   48.6705  146.9345 O   0  0  0  0  0  0  0  0  0  0  0  0
  157.7435   49.5170  146.8360 C   0  0  0  0  0  0  0  0  0  0  0  0
  156.6314   48.8074  146.0813 C   0  0  1  0  0  0  0  0  0  0  0  0
  156.5893   49.3343  144.7627 O   0  0  0  0  0  0  0  0  0  0  0  0
  156.7930   47.2999  145.9325 C   0  0  1  0  0  0  0  0  0  0  0  0
  155.9280   46.6345  146.8411 O   0  0  0  0  0  0  0  0  0  0  0  0
  156.2983   47.0293  144.5293 C   0  0  1  0  0  0  0  0  0  0  0  0
  154.8942   46.7650  144.5583 O   0  0  0  0  0  0  0  0  0  0  0  0
  156.4836   48.3163  143.7793 C   0  0  2  0  0  0  0  0  0  0  0  0
  157.7545   48.2580  143.0190 N   0  0  0  0  0  0  0  0  0  0  0  0
  158.2438   49.2342  142.2348 C   0  0  0  0  0  0  0  0  0  0  0  0
  159.4167   48.8532  141.6740 N   0  0  0  0  0  0  0  0  0  0  0  0
  159.6965   47.6082  142.0989 C   0  0  0  0  0  0  0  0  0  0  0  0
  160.7832   46.6229  141.8884 C   0  0  0  0  0  0  0  0  0  0  0  0
  161.7488   46.8972  141.1359 O   0  0  0  0  0  0  0  0  0  0  0  0
  160.6919   45.4421  142.5240 N   0  0  0  0  0  0  0  0  0  0  0  0
  159.6526   45.1520  143.3294 C   0  0  0  0  0  0  0  0  0  0  0  0
  159.6157   43.9500  143.9468 N   0  0  0  0  0  0  0  0  0  0  0  0
  158.6291   46.0040  143.5645 N   0  0  0  0  0  0  0  0  0  0  0  0
  158.5954   47.2243  142.9876 C   0  0  0  0  0  0  0  0  0  0  0  0
  156.0206   45.0451  147.1594 P   0  0  2  0  0  0  0  0  0  0  0  0
  156.0725   44.2814  145.8586 O   0  0  0  0  0  0  0  0  0  0  0  0
  154.9434   44.7596  148.1890 O   0  0  0  0  0  0  0  0  0  0  0  0
  157.4728   44.9156  147.8550 O   0  0  0  0  0  0  0  0  0  0  0  0
  157.6407   45.2577  149.2302 C   0  0  0  0  0  0  0  0  0  0  0  0
  159.0999   45.5278  149.6105 C   0  0  1  0  0  0  0  0  0  0  0  0
  159.8132   44.2901  149.6565 O   0  0  0  0  0  0  0  0  0  0  0  0
  159.8602   46.4407  148.6511 C   0  0  1  0  0  0  0  0  0  0  0  0
  159.8415   47.8040  149.0723 O   0  0  0  0  0  0  0  0  0  0  0  0
  161.2619   45.8618  148.6974 C   0  0  1  0  0  0  0  0  0  0  0  0
  162.0113   46.4292  149.7756 O   0  0  0  0  0  0  0  0  0  0  0  0
  161.0785   44.3888  148.9974 C   0  0  2  0  0  0  0  0  0  0  0  0
  161.0147   43.6277  147.7251 N   0  0  0  0  0  0  0  0  0  0  0  0
  161.9621   43.6180  146.7665 C   0  0  0  0  0  0  0  0  0  0  0  0
  161.6198   42.8126  145.7228 N   0  0  0  0  0  0  0  0  0  0  0  0
  160.4224   42.2786  146.0115 C   0  0  0  0  0  0  0  0  0  0  0  0
  159.4736   41.3521  145.3427 C   0  0  0  0  0  0  0  0  0  0  0  0
  159.7146   40.8354  144.2305 O   0  0  0  0  0  0  0  0  0  0  0  0
  158.3422   41.0597  145.9862 N   0  0  0  0  0  0  0  0  0  0  0  0
  158.0401   41.5832  147.1843 C   0  0  0  0  0  0  0  0  0  0  0  0
  156.8685   41.2312  147.7345 N   0  0  0  0  0  0  0  0  0  0  0  0
  158.8473   42.4399  147.8526 N   0  0  0  0  0  0  0  0  0  0  0  0
  160.0310   42.8209  147.3281 C   0  0  0  0  0  0  0  0  0  0  0  0
  1  3  2  6  0  0  0
  1 32  1  0  0  0  0
  1  2  1  0  0  0  0
  1  4  1  0  0  0  0
  4  5  1  0  0  0  0
  6  5  1  1  0  0  0
  7  6  1  0  0  0  0
  8  6  1  0  0  0  0
  8 10  1  0  0  0  0
  8  9  1  1  0  0  0
 10 11  1  1  0  0  0
 12 13  1  1  0  0  0
 12  7  1  0  0  0  0
 12 10  1  0  0  0  0
 14 13  1  0  0  0  0
 15 16  1  0  0  0  0
 15 14  2  0  0  0  0
 16 23  2  0  0  0  0
 17 16  1  0  0  0  0
 17 19  1  0  0  0  0
 18 17  2  0  0  0  0
 19 20  2  0  0  0  0
 20 22  1  0  0  0  0
 20 21  1  0  0  0  0
 23 13  1  0  0  0  0
 23 22  1  0  0  0  0
 24 25  2  6  0  0  0
 24  9  1  0  0  0  0
 24 26  1  0  0  0  0
 27 28  1  0  0  0  0
 27 24  1  0  0  0  0
 29 30  1  6  0  0  0
 29 28  1  0  0  0  0
 31 32  1  1  0  0  0
 31 29  1  0  0  0  0
 33 34  1  1  0  0  0
 33 35  1  0  0  0  0
 33 31  1  0  0  0  0
 35 36  1  6  0  0  0
 35 30  1  0  0  0  0
 36 37  1  0  0  0  0
 38 37  2  0  0  0  0
 39 38  1  0  0  0  0
 40 41  2  0  0  0  0
 40 39  1  0  0  0  0
 42 40  1  0  0  0  0
 43 42  2  0  0  0  0
 43 45  1  0  0  0  0
 44 43  1  0  0  0  0
 45 46  1  0  0  0  0
 46 39  2  0  0  0  0
 46 36  1  0  0  0  0
M  END
>  <CHROM.1>
-64.60983970,171.97484607,158.79561590,45.85810707,146.16171691,2.91602206
1.44086615,-1.90688524

>  <Name>
lig.pdb

>  <RI>
0

>  <Rbt.Current_Directory>
/home/itssahil/PROJECTS/Mol_Feturizer/New_Systems/rnas/4yb0

>  <Rbt.Executable>
rbdock ($Id: //depot/dev/client3/rdock/2013.1/src/exe/rbdock.cxx#4 $)

>  <Rbt.Library>
libRbt.so (2013.1, Build901 2013/11/27)

>  <Rbt.Parameter_File>
/export/apps/rDock/src/rDock_2013.1_src/data/scripts/dock_solv.prm

>  <Rbt.Receptor>
prm/pocket_docking_6.prm

>  <SCORE>
-13.5215

>  <SCORE.INTER>
-14.1474

>  <SCORE.INTER.CONST>
1

>  <SCORE.INTER.POLAR>
0

>  <SCORE.INTER.ROT>
2

>  <SCORE.INTER.SOLV>
14.3955

>  <SCORE.INTER.VDW>
-19.1634

>  <SCORE.INTER.norm>
-0.307552

>  <SCORE.INTRA>
0.625851

>  <SCORE.INTRA.DIHEDRAL>
0.0743147

>  <SCORE.INTRA.DIHEDRAL.0>
4.74153

>  <SCORE.INTRA.POLAR>
0

>  <SCORE.INTRA.POLAR.0>
0

>  <SCORE.INTRA.REPUL>
0

>  <SCORE.INTRA.REPUL.0>
0

>  <SCORE.INTRA.SOLV>
4.32294

>  <SCORE.INTRA.SOLV.lig_0>
-60.4375

>  <SCORE.INTRA.VDW>
-1.57278

>  <SCORE.INTRA.VDW.0>
-1.83689

>  <SCORE.INTRA.norm>
0.0136054

>  <SCORE.RESTR>
0

>  <SCORE.RESTR.CAVITY>
0

>  <SCORE.RESTR.norm>
0

>  <SCORE.SYSTEM>
0

>  <SCORE.SYSTEM.CONST>
0

>  <SCORE.SYSTEM.DIHEDRAL>
0

>  <SCORE.SYSTEM.SOLV>
0

>  <SCORE.SYSTEM.norm>
0

>  <SCORE.heavy>
46

>  <SCORE.norm>
-0.293947

>  <RMSD>
6.141

$$$$
lig.pdb
 OpenBabel11021811523D
libRbt.so/2013.1/901 2013/11/27
 46 52  0  0  0  0  0  0  0  0999 V2000
  162.5601   47.4787  147.1650 P   0  0  2  0  0  0  0  0  0  0  0  0
  162.9319   48.6983  147.9799 O   0  0  0  0  0  0  0  0  0  0  0  0
  163.4982   47.0981  146.0486 O   0  0  0  0  0  0  0  0  0  0  0  0
  161.0783   47.6125  146.5556 O   0  0  0  0  0  0  0  0  0  0  0  0
  160.2019   48.6591  146.9526 C   0  0  0  0  0  0  0  0  0  0  0  0
  158.7768   48.3278  146.5417 C   0  0  1  0  0  0  0  0  0  0  0  0
  158.4614   49.0968  145.3897 O   0  0  0  0  0  0  0  0  0  0  0  0
  158.5196   46.8738  146.1667 C   0  0  1  0  0  0  0  0  0  0  0  0
  157.8405   46.2193  147.2283 O   0  0  0  0  0  0  0  0  0  0  0  0
  157.5704   46.9751  144.9938 C   0  0  1  0  0  0  0  0  0  0  0  0
  156.2219   46.9766  145.4666 O   0  0  0  0  0  0  0  0  0  0  0  0
  157.8202   48.3248  144.3860 C   0  0  2  0  0  0  0  0  0  0  0  0
  158.7455   48.1778  143.2376 N   0  0  0  0  0  0  0  0  0  0  0  0
  158.5482   47.3863  142.1689 C   0  0  0  0  0  0  0  0  0  0  0  0
  159.5928   47.4740  141.3108 N   0  0  0  0  0  0  0  0  0  0  0  0
  160.4858   48.3363  141.8283 C   0  0  0  0  0  0  0  0  0  0  0  0
  161.8049   48.8811  141.4294 C   0  0  0  0  0  0  0  0  0  0  0  0
  162.3397   48.5194  140.3538 O   0  0  0  0  0  0  0  0  0  0  0  0
  162.3961   49.7619  142.2548 N   0  0  0  0  0  0  0  0  0  0  0  0
  161.8186   50.1458  143.4090 C   0  0  0  0  0  0  0  0  0  0  0  0
  162.4572   51.0385  144.1979 N   0  0  0  0  0  0  0  0  0  0  0  0
  160.6185   49.6881  143.8322 N   0  0  0  0  0  0  0  0  0  0  0  0
  159.9174   48.7974  143.0987 C   0  0  0  0  0  0  0  0  0  0  0  0
  157.6429   44.6095  147.3024 P   0  0  2  0  0  0  0  0  0  0  0  0
  157.1108   44.1140  145.9797 O   0  0  0  0  0  0  0  0  0  0  0  0
  156.8961   44.3373  148.5947 O   0  0  0  0  0  0  0  0  0  0  0  0
  159.1628   44.0803  147.4416 O   0  0  0  0  0  0  0  0  0  0  0  0
  159.8193   44.1141  148.7082 C   0  0  0  0  0  0  0  0  0  0  0  0
  161.3449   44.0293  148.5989 C   0  0  1  0  0  0  0  0  0  0  0  0
  161.7203   42.6950  148.2503 O   0  0  0  0  0  0  0  0  0  0  0  0
  161.9711   44.9516  147.5553 C   0  0  1  0  0  0  0  0  0  0  0  0
  162.4087   46.1875  148.1185 O   0  0  0  0  0  0  0  0  0  0  0  0
  163.1388   44.1236  147.0521 C   0  0  1  0  0  0  0  0  0  0  0  0
  164.2944   44.3233  147.8709 O   0  0  0  0  0  0  0  0  0  0  0  0
  162.7089   42.6809  147.2170 C   0  0  2  0  0  0  0  0  0  0  0  0
  162.0795   42.2041  145.9606 N   0  0  0  0  0  0  0  0  0  0  0  0
  161.3536   41.0769  145.8234 C   0  0  0  0  0  0  0  0  0  0  0  0
  160.8982   40.9184  144.5495 N   0  0  0  0  0  0  0  0  0  0  0  0
  161.3326   41.9722  143.8403 C   0  0  0  0  0  0  0  0  0  0  0  0
  161.2272   42.4320  142.4320 C   0  0  0  0  0  0  0  0  0  0  0  0
  160.5877   41.7963  141.5666 O   0  0  0  0  0  0  0  0  0  0  0  0
  161.8263   43.5805  142.1132 N   0  0  0  0  0  0  0  0  0  0  0  0
  162.5194   44.3027  143.0070 C   0  0  0  0  0  0  0  0  0  0  0  0
  163.0934   45.4352  142.5742 N   0  0  0  0  0  0  0  0  0  0  0  0
  162.6681   43.9463  144.3044 N   0  0  0  0  0  0  0  0  0  0  0  0
  162.1096   42.8113  144.7745 C   0  0  0  0  0  0  0  0  0  0  0  0
  1  3  2  6  0  0  0
  1 32  1  0  0  0  0
  1  2  1  0  0  0  0
  1  4  1  0  0  0  0
  4  5  1  0  0  0  0
  6  5  1  6  0  0  0
  7  6  1  0  0  0  0
  8  6  1  0  0  0  0
  8 10  1  0  0  0  0
  8  9  1  1  0  0  0
 10 11  1  1  0  0  0
 12 13  1  6  0  0  0
 12  7  1  0  0  0  0
 12 10  1  0  0  0  0
 14 13  1  0  0  0  0
 15 16  1  0  0  0  0
 15 14  2  0  0  0  0
 16 23  2  0  0  0  0
 17 16  1  0  0  0  0
 17 19  1  0  0  0  0
 18 17  2  0  0  0  0
 19 20  2  0  0  0  0
 20 22  1  0  0  0  0
 20 21  1  0  0  0  0
 23 13  1  0  0  0  0
 23 22  1  0  0  0  0
 24 25  2  6  0  0  0
 24  9  1  0  0  0  0
 24 26  1  0  0  0  0
 27 28  1  0  0  0  0
 27 24  1  0  0  0  0
 29 30  1  6  0  0  0
 29 28  1  0  0  0  0
 31 32  1  1  0  0  0
 31 29  1  0  0  0  0
 33 34  1  1  0  0  0
 33 35  1  0  0  0  0
 33 31  1  0  0  0  0
 35 36  1  6  0  0  0
 35 30  1  0  0  0  0
 36 37  1  0  0  0  0
 38 37  2  0  0  0  0
 39 38  1  0  0  0  0
 40 41  2  0  0  0  0
 40 39  1  0  0  0  0
 42 40  1  0  0  0  0
 43 42  2  0  0  0  0
 43 45  1  0  0  0  0
 44 43  1  0  0  0  0
 45 46  1  0  0  0  0
 46 39  2  0  0  0  0
 46 36  1  0  0  0  0
M  END
>  <CHROM.1>
171.86294545,-51.55111651,160.64424874,45.90682091,145.30907581,1.63374486
0.91444360,-0.59075949

>  <Name>
lig.pdb

>  <RI>
0

>  <Rbt.Current_Directory>
/home/itssahil/PROJECTS/Mol_Feturizer/New_Systems/rnas/4yb0

>  <Rbt.Executable>
rbdock ($Id: //depot/dev/client3/rdock/2013.1/src/exe/rbdock.cxx#4 $)

>  <Rbt.Library>
libRbt.so (2013.1, Build901 2013/11/27)

>  <Rbt.Parameter_File>
/export/apps/rDock/src/rDock_2013.1_src/data/scripts/dock_solv.prm

>  <Rbt.Receptor>
prm/pocket_docking_7.prm

>  <SCORE>
-14.797

>  <SCORE.INTER>
-14.6988

>  <SCORE.INTER.CONST>
1

>  <SCORE.INTER.POLAR>
0

>  <SCORE.INTER.ROT>
2

>  <SCORE.INTER.SOLV>
16.7298

>  <SCORE.INTER.VDW>
-20.3091

>  <SCORE.INTER.norm>
-0.319538

>  <SCORE.INTRA>
-0.0982324

>  <SCORE.INTRA.DIHEDRAL>
0.0160317

>  <SCORE.INTRA.DIHEDRAL.0>
4.74153

>  <SCORE.INTRA.POLAR>
0

>  <SCORE.INTRA.POLAR.0>
0

>  <SCORE.INTRA.REPUL>
0

>  <SCORE.INTRA.REPUL.0>
0

>  <SCORE.INTRA.SOLV>
1.24082

>  <SCORE.INTRA.SOLV.lig_0>
-60.4375

>  <SCORE.INTRA.VDW>
-0.726656

>  <SCORE.INTRA.VDW.0>
-1.83689

>  <SCORE.INTRA.norm>
-0.00213549

>  <SCORE.RESTR>
0

>  <SCORE.RESTR.CAVITY>
0

>  <SCORE.RESTR.norm>
0

>  <SCORE.SYSTEM>
0

>  <SCORE.SYSTEM.CONST>
0

>  <SCORE.SYSTEM.DIHEDRAL>
0

>  <SCORE.SYSTEM.SOLV>
0

>  <SCORE.SYSTEM.norm>
0

>  <SCORE.heavy>
46

>  <SCORE.norm>
-0.321674

>  <RMSD>
6.158

$$$$
lig.pdb
 OpenBabel11021811523D
libRbt.so/2013.1/901 2013/11/27
 46 52  0  0  0  0  0  0  0  0999 V2000
  161.6381   45.3176  150.8533 P   0  0  2  0  0  0  0  0  0  0  0  0
  161.5378   45.3349  152.3630 O   0  0  0  0  0  0  0  0  0  0  0  0
  162.7168   46.1700  150.2361 O   0  0  0  0  0  0  0  0  0  0  0  0
  160.2355   45.7055  150.1698 O   0  0  0  0  0  0  0  0  0  0  0  0
  159.0414   45.8174  150.9332 C   0  0  0  0  0  0  0  0  0  0  0  0
  157.8322   45.7988  150.0127 C   0  0  1  0  0  0  0  0  0  0  0  0
  157.3546   47.1308  149.8874 O   0  0  0  0  0  0  0  0  0  0  0  0
  158.0900   45.3037  148.5952 C   0  0  1  0  0  0  0  0  0  0  0  0
  157.5983   43.9789  148.4549 O   0  0  0  0  0  0  0  0  0  0  0  0
  157.2351   46.2147  147.7429 C   0  0  1  0  0  0  0  0  0  0  0  0
  155.9340   45.6447  147.5875 O   0  0  0  0  0  0  0  0  0  0  0  0
  157.0659   47.4748  148.5410 C   0  0  2  0  0  0  0  0  0  0  0  0
  158.0579   48.4770  148.0846 N   0  0  0  0  0  0  0  0  0  0  0  0
  158.7562   49.3063  148.8796 C   0  0  0  0  0  0  0  0  0  0  0  0
  159.5646   50.1056  148.1427 N   0  0  0  0  0  0  0  0  0  0  0  0
  159.3903   49.7928  146.8463 C   0  0  0  0  0  0  0  0  0  0  0  0
  159.9386   50.2545  145.5493 C   0  0  0  0  0  0  0  0  0  0  0  0
  160.7902   51.1751  145.5143 O   0  0  0  0  0  0  0  0  0  0  0  0
  159.4916   49.6584  144.4307 N   0  0  0  0  0  0  0  0  0  0  0  0
  158.5763   48.6717  144.4736 C   0  0  0  0  0  0  0  0  0  0  0  0
  158.1667   48.1051  143.3167 N   0  0  0  0  0  0  0  0  0  0  0  0
  158.0357   48.2036  145.6214 N   0  0  0  0  0  0  0  0  0  0  0  0
  158.3959   48.7157  146.8176 C   0  0  0  0  0  0  0  0  0  0  0  0
  157.9352   43.0330  147.1790 P   0  0  2  0  0  0  0  0  0  0  0  0
  157.6786   43.8054  145.9079 O   0  0  0  0  0  0  0  0  0  0  0  0
  157.2399   41.7104  147.4418 O   0  0  0  0  0  0  0  0  0  0  0  0
  159.5328   42.8324  147.3093 O   0  0  0  0  0  0  0  0  0  0  0  0
  160.0615   41.8771  148.2281 C   0  0  0  0  0  0  0  0  0  0  0  0
  161.5343   42.1217  148.5713 C   0  0  1  0  0  0  0  0  0  0  0  0
  162.3474   41.7507  147.4560 O   0  0  0  0  0  0  0  0  0  0  0  0
  161.8873   43.5674  148.9141 C   0  0  1  0  0  0  0  0  0  0  0  0
  161.8593   43.8125  150.3196 O   0  0  0  0  0  0  0  0  0  0  0  0
  163.2908   43.6986  148.3529 C   0  0  1  0  0  0  0  0  0  0  0  0
  164.2636   43.2710  149.3103 O   0  0  0  0  0  0  0  0  0  0  0  0
  163.3484   42.7356  147.1855 C   0  0  2  0  0  0  0  0  0  0  0  0
  162.9898   43.4499  145.9352 N   0  0  0  0  0  0  0  0  0  0  0  0
  163.1504   44.7689  145.7096 C   0  0  0  0  0  0  0  0  0  0  0  0
  162.7388   45.1240  144.4607 N   0  0  0  0  0  0  0  0  0  0  0  0
  162.3054   44.0072  143.8547 C   0  0  0  0  0  0  0  0  0  0  0  0
  161.7247   43.6631  142.5318 C   0  0  0  0  0  0  0  0  0  0  0  0
  161.5489   44.5165  141.6357 O   0  0  0  0  0  0  0  0  0  0  0  0
  161.4112   42.3854  142.3109 N   0  0  0  0  0  0  0  0  0  0  0  0
  161.5865   41.4310  143.2378 C   0  0  0  0  0  0  0  0  0  0  0  0
  161.2235   40.1810  142.9137 N   0  0  0  0  0  0  0  0  0  0  0  0
  162.1007   41.6665  144.4676 N   0  0  0  0  0  0  0  0  0  0  0  0
  162.4720   42.9120  144.8311 C   0  0  0  0  0  0  0  0  0  0  0  0
  1  3  2  6  0  0  0
  1 32  1  0  0  0  0
  1  2  1  0  0  0  0
  1  4  1  0  0  0  0
  4  5  1  0  0  0  0
  6  5  1  1  0  0  0
  7  6  1  0  0  0  0
  8  6  1  0  0  0  0
  8 10  1  0  0  0  0
  8  9  1  1  0  0  0
 10 11  1  1  0  0  0
 12 13  1  6  0  0  0
 12  7  1  0  0  0  0
 12 10  1  0  0  0  0
 14 13  1  0  0  0  0
 15 16  1  0  0  0  0
 15 14  2  0  0  0  0
 16 23  2  0  0  0  0
 17 16  1  0  0  0  0
 17 19  1  0  0  0  0
 18 17  2  0  0  0  0
 19 20  2  0  0  0  0
 20 22  1  0  0  0  0
 20 21  1  0  0  0  0
 23 13  1  0  0  0  0
 23 22  1  0  0  0  0
 24 25  2  6  0  0  0
 24  9  1  0  0  0  0
 24 26  1  0  0  0  0
 27 28  1  0  0  0  0
 27 24  1  0  0  0  0
 29 30  1  6  0  0  0
 29 28  1  0  0  0  0
 31 32  1  1  0  0  0
 31 29  1  0  0  0  0
 33 34  1  1  0  0  0
 33 35  1  0  0  0  0
 33 31  1  0  0  0  0
 35 36  1  6  0  0  0
 35 30  1  0  0  0  0
 36 37  1  0  0  0  0
 38 37  2  0  0  0  0
 39 38  1  0  0  0  0
 40 41  2  0  0  0  0
 40 39  1  0  0  0  0
 42 40  1  0  0  0  0
 43 42  2  0  0  0  0
 43 45  1  0  0  0  0
 44 43  1  0  0  0  0
 45 46  1  0  0  0  0
 46 39  2  0  0  0  0
 46 36  1  0  0  0  0
M  END
>  <CHROM.1>
-23.99748410,141.44200695,160.17432243,45.14023662,147.16247298,-2.84394607
1.08512349,-1.46815246

>  <Name>
lig.pdb

>  <RI>
0

>  <Rbt.Current_Directory>
/home/itssahil/PROJECTS/Mol_Feturizer/New_Systems/rnas/4yb0

>  <Rbt.Executable>
rbdock ($Id: //depot/dev/client3/rdock/2013.1/src/exe/rbdock.cxx#4 $)

>  <Rbt.Library>
libRbt.so (2013.1, Build901 2013/11/27)

>  <Rbt.Parameter_File>
/export/apps/rDock/src/rDock_2013.1_src/data/scripts/dock_solv.prm

>  <Rbt.Receptor>
prm/pocket_docking_8.prm

>  <SCORE>
-14.046

>  <SCORE.INTER>
-15.0022

>  <SCORE.INTER.CONST>
1

>  <SCORE.INTER.POLAR>
0

>  <SCORE.INTER.ROT>
2

>  <SCORE.INTER.SOLV>
13.7822

>  <SCORE.INTER.VDW>
-19.5289

>  <SCORE.INTER.norm>
-0.326136

>  <SCORE.INTRA>
0.955541

>  <SCORE.INTRA.DIHEDRAL>
0.155227

>  <SCORE.INTRA.DIHEDRAL.0>
4.74153

>  <SCORE.INTRA.POLAR>
0

>  <SCORE.INTRA.POLAR.0>
0

>  <SCORE.INTRA.REPUL>
0.0417717

>  <SCORE.INTRA.REPUL.0>
0

>  <SCORE.INTRA.SOLV>
0.110598

>  <SCORE.INTRA.SOLV.lig_0>
-60.4375

>  <SCORE.INTRA.VDW>
0.61377

>  <SCORE.INTRA.VDW.0>
-1.83689

>  <SCORE.INTRA.norm>
0.0207726

>  <SCORE.RESTR>
0.00069767

>  <SCORE.RESTR.CAVITY>
0.00069767

>  <SCORE.RESTR.norm>
1.51667e-05

>  <SCORE.SYSTEM>
0

>  <SCORE.SYSTEM.CONST>
0

>  <SCORE.SYSTEM.DIHEDRAL>
0

>  <SCORE.SYSTEM.SOLV>
0

>  <SCORE.SYSTEM.norm>
0

>  <SCORE.heavy>
46

>  <SCORE.norm>
-0.305348

>  <RMSD>
6.183

$$$$
lig.pdb
 OpenBabel11021811523D
libRbt.so/2013.1/901 2013/11/27
 46 52  0  0  0  0  0  0  0  0999 V2000
  161.9185   48.0485  145.9491 P   0  0  2  0  0  0  0  0  0  0  0  0
  163.2699   48.7289  145.9687 O   0  0  0  0  0  0  0  0  0  0  0  0
  160.9461   48.4418  147.0312 O   0  0  0  0  0  0  0  0  0  0  0  0
  162.0697   46.4479  145.9639 O   0  0  0  0  0  0  0  0  0  0  0  0
  163.3322   45.8179  145.7898 C   0  0  0  0  0  0  0  0  0  0  0  0
  163.1382   44.3483  145.4546 C   0  0  1  0  0  0  0  0  0  0  0  0
  163.4153   43.5905  146.6237 O   0  0  0  0  0  0  0  0  0  0  0  0
  161.7349   43.9523  145.0130 C   0  0  1  0  0  0  0  0  0  0  0  0
  161.7113   43.7673  143.6052 O   0  0  0  0  0  0  0  0  0  0  0  0
  161.5268   42.6049  145.6673 C   0  0  1  0  0  0  0  0  0  0  0  0
  161.9758   41.5707  144.7893 O   0  0  0  0  0  0  0  0  0  0  0  0
  162.4377   42.5890  146.8604 C   0  0  2  0  0  0  0  0  0  0  0  0
  161.6634   42.9586  148.0689 N   0  0  0  0  0  0  0  0  0  0  0  0
  162.0156   43.8925  148.9697 C   0  0  0  0  0  0  0  0  0  0  0  0
  161.0953   43.9707  149.9607 N   0  0  0  0  0  0  0  0  0  0  0  0
  160.1276   43.0730  149.7024 C   0  0  0  0  0  0  0  0  0  0  0  0
  158.8640   42.6440  150.3468 C   0  0  0  0  0  0  0  0  0  0  0  0
  158.4897   43.1741  151.4205 O   0  0  0  0  0  0  0  0  0  0  0  0
  158.1489   41.6779  149.7453 N   0  0  0  0  0  0  0  0  0  0  0  0
  158.5558   41.1110  148.5937 C   0  0  0  0  0  0  0  0  0  0  0  0
  157.7935   40.1470  148.0309 N   0  0  0  0  0  0  0  0  0  0  0  0
  159.6966   41.4548  147.9541 N   0  0  0  0  0  0  0  0  0  0  0  0
  160.5097   42.4113  148.4511 C   0  0  0  0  0  0  0  0  0  0  0  0
  160.3407   43.6097  142.7493 P   0  0  2  0  0  0  0  0  0  0  0  0
  159.4595   42.5777  143.4102 O   0  0  0  0  0  0  0  0  0  0  0  0
  160.7654   43.4598  141.3005 O   0  0  0  0  0  0  0  0  0  0  0  0
  159.6373   45.0494  142.9541 O   0  0  0  0  0  0  0  0  0  0  0  0
  160.0597   46.1693  142.1771 C   0  0  0  0  0  0  0  0  0  0  0  0
  159.6510   47.5142  142.7861 C   0  0  1  0  0  0  0  0  0  0  0  0
  158.2459   47.7061  142.6081 O   0  0  0  0  0  0  0  0  0  0  0  0
  159.9312   47.6598  144.2801 C   0  0  1  0  0  0  0  0  0  0  0  0
  161.1822   48.2966  144.5364 O   0  0  0  0  0  0  0  0  0  0  0  0
  158.7657   48.5125  144.7455 C   0  0  1  0  0  0  0  0  0  0  0  0
  159.0593   49.9038  144.5905 O   0  0  0  0  0  0  0  0  0  0  0  0
  157.6252   48.1815  143.8056 C   0  0  2  0  0  0  0  0  0  0  0  0
  156.8062   47.0883  144.3853 N   0  0  0  0  0  0  0  0  0  0  0  0
  156.1156   46.1670  143.6847 C   0  0  0  0  0  0  0  0  0  0  0  0
  155.4723   45.2863  144.5007 N   0  0  0  0  0  0  0  0  0  0  0  0
  155.7563   45.6383  145.7647 C   0  0  0  0  0  0  0  0  0  0  0  0
  155.3967   45.1475  147.1195 C   0  0  0  0  0  0  0  0  0  0  0  0
  154.6671   44.1484  147.2975 O   0  0  0  0  0  0  0  0  0  0  0  0
  155.9047   45.8010  148.1657 N   0  0  0  0  0  0  0  0  0  0  0  0
  156.6976   46.8748  148.0273 C   0  0  0  0  0  0  0  0  0  0  0  0
  157.1411   47.4636  149.1479 N   0  0  0  0  0  0  0  0  0  0  0  0
  157.0627   47.3869  146.8286 N   0  0  0  0  0  0  0  0  0  0  0  0
  156.6317   46.8245  145.6800 C   0  0  0  0  0  0  0  0  0  0  0  0
  1  3  2  1  0  0  0
  1 32  1  0  0  0  0
  1  2  1  0  0  0  0
  1  4  1  0  0  0  0
  4  5  1  0  0  0  0
  6  5  1  1  0  0  0
  7  6  1  0  0  0  0
  8  6  1  0  0  0  0
  8 10  1  0  0  0  0
  8  9  1  6  0  0  0
 10 11  1  6  0  0  0
 12 13  1  1  0  0  0
 12  7  1  0  0  0  0
 12 10  1  0  0  0  0
 14 13  1  0  0  0  0
 15 16  1  0  0  0  0
 15 14  2  0  0  0  0
 16 23  2  0  0  0  0
 17 16  1  0  0  0  0
 17 19  1  0  0  0  0
 18 17  2  0  0  0  0
 19 20  2  0  0  0  0
 20 22  1  0  0  0  0
 20 21  1  0  0  0  0
 23 13  1  0  0  0  0
 23 22  1  0  0  0  0
 24 25  2  1  0  0  0
 24  9  1  0  0  0  0
 24 26  1  0  0  0  0
 27 28  1  0  0  0  0
 27 24  1  0  0  0  0
 29 30  1  1  0  0  0
 29 28  1  0  0  0  0
 31 32  1  6  0  0  0
 31 29  1  0  0  0  0
 33 34  1  6  0  0  0
 33 35  1  0  0  0  0
 33 31  1  0  0  0  0
 35 36  1  1  0  0  0
 35 30  1  0  0  0  0
 36 37  1  0  0  0  0
 38 37  2  0  0  0  0
 39 38  1  0  0  0  0
 40 41  2  0  0  0  0
 40 39  1  0  0  0  0
 42 40  1  0  0  0  0
 43 42  2  0  0  0  0
 43 45  1  0  0  0  0
 44 43  1  0  0  0  0
 45 46  1  0  0  0  0
 46 39  2  0  0  0  0
 46 36  1  0  0  0  0
M  END
>  <CHROM.1>
-14.59667275,-35.27982144,159.64032447,45.13155150,145.94211119,-1.55631320
-0.39798229,2.36976927

>  <Name>
lig.pdb

>  <RI>
0

>  <Rbt.Current_Directory>
/home/itssahil/PROJECTS/Mol_Feturizer/New_Systems/rnas/4yb0

>  <Rbt.Executable>
rbdock ($Id: //depot/dev/client3/rdock/2013.1/src/exe/rbdock.cxx#4 $)

>  <Rbt.Library>
libRbt.so (2013.1, Build901 2013/11/27)

>  <Rbt.Parameter_File>
/export/apps/rDock/src/rDock_2013.1_src/data/scripts/dock_solv.prm

>  <Rbt.Receptor>
prm/pocket_docking_7.prm

>  <SCORE>
-15.8955

>  <SCORE.INTER>
-16.3748

>  <SCORE.INTER.CONST>
1

>  <SCORE.INTER.POLAR>
0

>  <SCORE.INTER.ROT>
2

>  <SCORE.INTER.SOLV>
14.9261

>  <SCORE.INTER.VDW>
-20.8252

>  <SCORE.INTER.norm>
-0.355974

>  <SCORE.INTRA>
0.479286

>  <SCORE.INTRA.DIHEDRAL>
0.0321268

>  <SCORE.INTRA.DIHEDRAL.0>
4.74153

>  <SCORE.INTRA.POLAR>
0

>  <SCORE.INTRA.POLAR.0>
0

>  <SCORE.INTRA.REPUL>
0.0136852

>  <SCORE.INTRA.REPUL.0>
0

>  <SCORE.INTRA.SOLV>
0.150784

>  <SCORE.INTRA.SOLV.lig_0>
-60.4375

>  <SCORE.INTRA.VDW>
0.319404

>  <SCORE.INTRA.VDW.0>
-1.83689

>  <SCORE.INTRA.norm>
0.0104193

>  <SCORE.RESTR>
0

>  <SCORE.RESTR.CAVITY>
0

>  <SCORE.RESTR.norm>
0

>  <SCORE.SYSTEM>
0

>  <SCORE.SYSTEM.CONST>
0

>  <SCORE.SYSTEM.DIHEDRAL>
0

>  <SCORE.SYSTEM.SOLV>
0

>  <SCORE.SYSTEM.norm>
0

>  <SCORE.heavy>
46

>  <SCORE.norm>
-0.345555

>  <RMSD>
6.222

$$$$
lig.pdb
 OpenBabel11021811523D
libRbt.so/2013.1/901 2013/11/27
 46 52  0  0  0  0  0  0  0  0999 V2000
  156.9924   48.7630  149.1410 P   0  0  2  0  0  0  0  0  0  0  0  0
  156.4189   48.9673  150.5263 O   0  0  0  0  0  0  0  0  0  0  0  0
  156.4690   49.6630  148.0515 O   0  0  0  0  0  0  0  0  0  0  0  0
  156.8269   47.2381  148.6589 O   0  0  0  0  0  0  0  0  0  0  0  0
  156.3957   46.2183  149.5506 C   0  0  0  0  0  0  0  0  0  0  0  0
  156.7026   44.8505  148.9635 C   0  0  1  0  0  0  0  0  0  0  0  0
  155.4914   44.3078  148.4569 O   0  0  0  0  0  0  0  0  0  0  0  0
  157.6926   44.8367  147.8058 C   0  0  1  0  0  0  0  0  0  0  0  0
  158.9560   44.3769  148.2627 O   0  0  0  0  0  0  0  0  0  0  0  0
  157.1244   43.7947  146.8686 C   0  0  1  0  0  0  0  0  0  0  0  0
  157.6597   42.5111  147.1972 O   0  0  0  0  0  0  0  0  0  0  0  0
  155.6538   43.7419  147.1654 C   0  0  2  0  0  0  0  0  0  0  0  0
  154.9288   44.5838  146.1844 N   0  0  0  0  0  0  0  0  0  0  0  0
  153.5961   44.7526  146.1306 C   0  0  0  0  0  0  0  0  0  0  0  0
  153.2599   45.5721  145.1056 N   0  0  0  0  0  0  0  0  0  0  0  0
  154.3914   45.9434  144.4806 C   0  0  0  0  0  0  0  0  0  0  0  0
  154.7456   46.8002  143.3246 C   0  0  0  0  0  0  0  0  0  0  0  0
  153.8476   47.3828  142.6704 O   0  0  0  0  0  0  0  0  0  0  0  0
  156.0464   46.9231  143.0093 N   0  0  0  0  0  0  0  0  0  0  0  0
  157.0063   46.2944  143.7137 C   0  0  0  0  0  0  0  0  0  0  0  0
  158.2990   46.4584  143.3540 N   0  0  0  0  0  0  0  0  0  0  0  0
  156.7526   45.4990  144.7776 N   0  0  0  0  0  0  0  0  0  0  0  0
  155.4879   45.2882  145.2006 C   0  0  0  0  0  0  0  0  0  0  0  0
  160.3163   44.4860  147.3831 P   0  0  2  0  0  0  0  0  0  0  0  0
  160.0542   43.9506  145.9964 O   0  0  0  0  0  0  0  0  0  0  0  0
  161.4220   43.9077  148.2463 O   0  0  0  0  0  0  0  0  0  0  0  0
  160.5183   46.0836  147.2549 O   0  0  0  0  0  0  0  0  0  0  0  0
  161.0905   46.8215  148.3340 C   0  0  0  0  0  0  0  0  0  0  0  0
  160.7955   48.3229  148.2609 C   0  0  1  0  0  0  0  0  0  0  0  0
  161.5814   48.9089  147.2208 O   0  0  0  0  0  0  0  0  0  0  0  0
  159.3401   48.6831  147.9714 C   0  0  1  0  0  0  0  0  0  0  0  0
  158.5959   48.9288  149.1639 O   0  0  0  0  0  0  0  0  0  0  0  0
  159.4793   49.9394  147.1321 C   0  0  1  0  0  0  0  0  0  0  0  0
  159.5644   51.1000  147.9638 O   0  0  0  0  0  0  0  0  0  0  0  0
  160.8047   49.7975  146.4133 C   0  0  2  0  0  0  0  0  0  0  0  0
  160.5849   49.1687  145.0872 N   0  0  0  0  0  0  0  0  0  0  0  0
  159.7554   49.6256  144.1283 C   0  0  0  0  0  0  0  0  0  0  0  0
  159.7810   48.8377  143.0175 N   0  0  0  0  0  0  0  0  0  0  0  0
  160.6542   47.8463  143.2559 C   0  0  0  0  0  0  0  0  0  0  0  0
  161.1550   46.6596  142.5166 C   0  0  0  0  0  0  0  0  0  0  0  0
  160.7793   46.3863  141.3563 O   0  0  0  0  0  0  0  0  0  0  0  0
  162.0559   45.8887  143.1280 N   0  0  0  0  0  0  0  0  0  0  0  0
  162.4956   46.1428  144.3701 C   0  0  0  0  0  0  0  0  0  0  0  0
  163.3920   45.2934  144.8939 N   0  0  0  0  0  0  0  0  0  0  0  0
  162.0811   47.1975  145.1104 N   0  0  0  0  0  0  0  0  0  0  0  0
  161.1765   48.0701  144.6189 C   0  0  0  0  0  0  0  0  0  0  0  0
  1  3  2  6  0  0  0
  1 32  1  0  0  0  0
  1  2  1  0  0  0  0
  1  4  1  0  0  0  0
  4  5  1  0  0  0  0
  6  5  1  6  0  0  0
  7  6  1  0  0  0  0
  8  6  1  0  0  0  0
  8 10  1  0  0  0  0
  8  9  1  1  0  0  0
 10 11  1  1  0  0  0
 12 13  1  6  0  0  0
 12  7  1  0  0  0  0
 12 10  1  0  0  0  0
 14 13  1  0  0  0  0
 15 16  1  0  0  0  0
 15 14  2  0  0  0  0
 16 23  2  0  0  0  0
 17 16  1  0  0  0  0
 17 19  1  0  0  0  0
 18 17  2  0  0  0  0
 19 20  2  0  0  0  0
 20 22  1  0  0  0  0
 20 21  1  0  0  0  0
 23 13  1  0  0  0  0
 23 22  1  0  0  0  0
 24 25  2  6  0  0  0
 24  9  1  0  0  0  0
 24 26  1  0  0  0  0
 27 28  1  0  0  0  0
 27 24  1  0  0  0  0
 29 30  1  6  0  0  0
 29 28  1  0  0  0  0
 31 32  1  1  0  0  0
 31 29  1  0  0  0  0
 33 34  1  1  0  0  0
 33 35  1  0  0  0  0
 33 31  1  0  0  0  0
 35 36  1  6  0  0  0
 35 30  1  0  0  0  0
 36 37  1  0  0  0  0
 38 37  2  0  0  0  0
 39 38  1  0  0  0  0
 40 41  2  0  0  0  0
 40 39  1  0  0  0  0
 42 40  1  0  0  0  0
 43 42  2  0  0  0  0
 43 45  1  0  0  0  0
 44 43  1  0  0  0  0
 45 46  1  0  0  0  0
 46 39  2  0  0  0  0
 46 36  1  0  0  0  0
M  END
>  <CHROM.1>
-65.98149001,170.75083257,158.45656304,46.66710514,146.30726340,-2.97468826
-0.35036190,-1.87882888

>  <Name>
lig.pdb

>  <RI>
0

>  <Rbt.Current_Directory>
/home/itssahil/PROJECTS/Mol_Feturizer/New_Systems/rnas/4yb0

>  <Rbt.Executable>
rbdock ($Id: //depot/dev/client3/rdock/2013.1/src/exe/rbdock.cxx#4 $)

>  <Rbt.Library>
libRbt.so (2013.1, Build901 2013/11/27)

>  <Rbt.Parameter_File>
/export/apps/rDock/src/rDock_2013.1_src/data/scripts/dock_solv.prm

>  <Rbt.Receptor>
prm/pocket_docking_5.prm

>  <SCORE>
-21.1327

>  <SCORE.INTER>
-21.8521

>  <SCORE.INTER.CONST>
1

>  <SCORE.INTER.POLAR>
0

>  <SCORE.INTER.ROT>
2

>  <SCORE.INTER.SOLV>
17.7731

>  <SCORE.INTER.VDW>
-25.4258

>  <SCORE.INTER.norm>
-0.475047

>  <SCORE.INTRA>
0.678874

>  <SCORE.INTRA.DIHEDRAL>
0.0745551

>  <SCORE.INTRA.DIHEDRAL.0>
4.74153

>  <SCORE.INTRA.POLAR>
0

>  <SCORE.INTRA.POLAR.0>
0

>  <SCORE.INTRA.REPUL>
0

>  <SCORE.INTRA.REPUL.0>
0

>  <SCORE.INTRA.SOLV>
4.16753

>  <SCORE.INTRA.SOLV.lig_0>
-60.4375

>  <SCORE.INTRA.VDW>
-1.44217

>  <SCORE.INTRA.VDW.0>
-1.83689

>  <SCORE.INTRA.norm>
0.0147581

>  <SCORE.RESTR>
0.040559

>  <SCORE.RESTR.CAVITY>
0.040559

>  <SCORE.RESTR.norm>
0.000881717

>  <SCORE.SYSTEM>
0

>  <SCORE.SYSTEM.CONST>
0

>  <SCORE.SYSTEM.DIHEDRAL>
0

>  <SCORE.SYSTEM.SOLV>
0

>  <SCORE.SYSTEM.norm>
0

>  <SCORE.heavy>
46

>  <SCORE.norm>
-0.459407

>  <RMSD>
6.236

$$$$
lig.pdb
 OpenBabel11021811523D
libRbt.so/2013.1/901 2013/11/27
 46 52  0  0  0  0  0  0  0  0999 V2000
  161.5939   45.4006  150.8716 P   0  0  2  0  0  0  0  0  0  0  0  0
  161.5287   45.4299  152.3830 O   0  0  0  0  0  0  0  0  0  0  0  0
  162.6207   46.2910  150.2203 O   0  0  0  0  0  0  0  0  0  0  0  0
  160.1603   45.7219  150.2184 O   0  0  0  0  0  0  0  0  0  0  0  0
  158.9810   45.7917  151.0092 C   0  0  0  0  0  0  0  0  0  0  0  0
  157.7522   45.7124  150.1184 C   0  0  1  0  0  0  0  0  0  0  0  0
  157.2159   47.0217  149.9917 O   0  0  0  0  0  0  0  0  0  0  0  0
  157.9970   45.2134  148.7000 C   0  0  1  0  0  0  0  0  0  0  0  0
  157.5586   43.8677  148.5844 O   0  0  0  0  0  0  0  0  0  0  0  0
  157.0845   46.0785  147.8597 C   0  0  1  0  0  0  0  0  0  0  0  0
  155.8053   45.4527  147.7412 O   0  0  0  0  0  0  0  0  0  0  0  0
  156.8811   47.3388  148.6494 C   0  0  2  0  0  0  0  0  0  0  0  0
  157.8187   48.3769  148.1595 N   0  0  0  0  0  0  0  0  0  0  0  0
  159.1575   48.2635  148.1115 C   0  0  0  0  0  0  0  0  0  0  0  0
  159.7155   49.3984  147.6259 N   0  0  0  0  0  0  0  0  0  0  0  0
  158.7247   50.2661  147.3532 C   0  0  0  0  0  0  0  0  0  0  0  0
  158.6239   51.6433  146.8155 C   0  0  0  0  0  0  0  0  0  0  0  0
  159.6600   52.2763  146.4994 O   0  0  0  0  0  0  0  0  0  0  0  0
  157.3979   52.1784  146.6852 N   0  0  0  0  0  0  0  0  0  0  0  0
  156.2891   51.4954  147.0274 C   0  0  0  0  0  0  0  0  0  0  0  0
  155.0815   52.0821  146.8702 N   0  0  0  0  0  0  0  0  0  0  0  0
  156.3099   50.2375  147.5235 N   0  0  0  0  0  0  0  0  0  0  0  0
  157.4765   49.5828  147.7064 C   0  0  0  0  0  0  0  0  0  0  0  0
  157.9049   42.9232  147.3101 P   0  0  2  0  0  0  0  0  0  0  0  0
  157.5858   43.6704  146.0381 O   0  0  0  0  0  0  0  0  0  0  0  0
  157.2726   41.5753  147.6023 O   0  0  0  0  0  0  0  0  0  0  0  0
  159.5122   42.7913  147.4038 O   0  0  0  0  0  0  0  0  0  0  0  0
  160.1025   41.8689  148.3187 C   0  0  0  0  0  0  0  0  0  0  0  0
  161.5713   42.1789  148.6240 C   0  0  1  0  0  0  0  0  0  0  0  0
  162.3727   41.8305  147.4930 O   0  0  0  0  0  0  0  0  0  0  0  0
  161.8708   43.6417  148.9441 C   0  0  1  0  0  0  0  0  0  0  0  0
  161.8659   43.9005  150.3474 O   0  0  0  0  0  0  0  0  0  0  0  0
  163.2539   43.8258  148.3479 C   0  0  1  0  0  0  0  0  0  0  0  0
  164.2663   43.4498  149.2857 O   0  0  0  0  0  0  0  0  0  0  0  0
  163.3245   42.8536  147.1889 C   0  0  2  0  0  0  0  0  0  0  0  0
  162.9065   43.5388  145.9407 N   0  0  0  0  0  0  0  0  0  0  0  0
  162.9896   44.8632  145.7052 C   0  0  0  0  0  0  0  0  0  0  0  0
  162.5388   45.1867  144.4613 N   0  0  0  0  0  0  0  0  0  0  0  0
  162.1587   44.0437  143.8687 C   0  0  0  0  0  0  0  0  0  0  0  0
  161.5769   43.6593  142.5575 C   0  0  0  0  0  0  0  0  0  0  0  0
  161.3393   44.4957  141.6597 O   0  0  0  0  0  0  0  0  0  0  0  0
  161.3317   42.3647  142.3488 N   0  0  0  0  0  0  0  0  0  0  0  0
  161.5748   41.4275  143.2780 C   0  0  0  0  0  0  0  0  0  0  0  0
  161.2770   40.1572  142.9667 N   0  0  0  0  0  0  0  0  0  0  0  0
  162.0948   41.6992  144.4978 N   0  0  0  0  0  0  0  0  0  0  0  0
  162.4018   42.9658  144.8483 C   0  0  0  0  0  0  0  0  0  0  0  0
  1  3  2  6  0  0  0
  1 32  1  0  0  0  0
  1  2  1  0  0  0  0
  1  4  1  0  0  0  0
  4  5  1  0  0  0  0
  6  5  1  1  0  0  0
  7  6  1  0  0  0  0
  8  6  1  0  0  0  0
  8 10  1  0  0  0  0
  8  9  1  1  0  0  0
 10 11  1  1  0  0  0
 12 13  1  6  0  0  0
 12  7  1  0  0  0  0
 12 10  1  0  0  0  0
 14 13  1  0  0  0  0
 15 16  1  0  0  0  0
 15 14  2  0  0  0  0
 16 23  2  0  0  0  0
 17 16  1  0  0  0  0
 17 19  1  0  0  0  0
 18 17  2  0  0  0  0
 19 20  2  0  0  0  0
 20 22  1  0  0  0  0
 20 21  1  0  0  0  0
 23 13  1  0  0  0  0
 23 22  1  0  0  0  0
 24 25  2  6  0  0  0
 24  9  1  0  0  0  0
 24 26  1  0  0  0  0
 27 28  1  0  0  0  0
 27 24  1  0  0  0  0
 29 30  1  6  0  0  0
 29 28  1  0  0  0  0
 31 32  1  1  0  0  0
 31 29  1  0  0  0  0
 33 34  1  1  0  0  0
 33 35  1  0  0  0  0
 33 31  1  0  0  0  0
 35 36  1  6  0  0  0
 35 30  1  0  0  0  0
 36 37  1  0  0  0  0
 38 37  2  0  0  0  0
 39 38  1  0  0  0  0
 40 41  2  0  0  0  0
 40 39  1  0  0  0  0
 42 40  1  0  0  0  0
 43 42  2  0  0  0  0
 43 45  1  0  0  0  0
 44 43  1  0  0  0  0
 45 46  1  0  0  0  0
 46 39  2  0  0  0  0
 46 36  1  0  0  0  0
M  END
>  <CHROM.1>
58.14757295,140.51497872,159.87190121,45.40218098,147.45795990,-0.27965878
-1.03877649,1.52277652

>  <Name>
lig.pdb

>  <RI>
0

>  <Rbt.Current_Directory>
/home/itssahil/PROJECTS/Mol_Feturizer/New_Systems/rnas/4yb0

>  <Rbt.Executable>
rbdock ($Id: //depot/dev/client3/rdock/2013.1/src/exe/rbdock.cxx#4 $)

>  <Rbt.Library>
libRbt.so (2013.1, Build901 2013/11/27)

>  <Rbt.Parameter_File>
/export/apps/rDock/src/rDock_2013.1_src/data/scripts/dock_solv.prm

>  <Rbt.Receptor>
prm/pocket_docking_7.prm

>  <SCORE>
-16.143

>  <SCORE.INTER>
-16.6432

>  <SCORE.INTER.CONST>
1

>  <SCORE.INTER.POLAR>
0

>  <SCORE.INTER.ROT>
2

>  <SCORE.INTER.SOLV>
15.6169

>  <SCORE.INTER.VDW>
-21.2344

>  <SCORE.INTER.norm>
-0.361809

>  <SCORE.INTRA>
0.500216

>  <SCORE.INTRA.DIHEDRAL>
0.107018

>  <SCORE.INTRA.DIHEDRAL.0>
4.74153

>  <SCORE.INTRA.POLAR>
0

>  <SCORE.INTRA.POLAR.0>
0

>  <SCORE.INTRA.REPUL>
0.0383323

>  <SCORE.INTRA.REPUL.0>
0

>  <SCORE.INTRA.SOLV>
-0.0836876

>  <SCORE.INTRA.SOLV.lig_0>
-60.4375

>  <SCORE.INTRA.VDW>
0.29689

>  <SCORE.INTRA.VDW.0>
-1.83689

>  <SCORE.INTRA.norm>
0.0108743

>  <SCORE.RESTR>
0

>  <SCORE.RESTR.CAVITY>
0

>  <SCORE.RESTR.norm>
0

>  <SCORE.SYSTEM>
0

>  <SCORE.SYSTEM.CONST>
0

>  <SCORE.SYSTEM.DIHEDRAL>
0

>  <SCORE.SYSTEM.SOLV>
0

>  <SCORE.SYSTEM.norm>
0

>  <SCORE.heavy>
46

>  <SCORE.norm>
-0.350935

>  <RMSD>
6.246

$$$$
lig.pdb
 OpenBabel11021811523D
libRbt.so/2013.1/901 2013/11/27
 46 52  0  0  0  0  0  0  0  0999 V2000
  160.1418   44.3870  147.8217 P   0  0  2  0  0  0  0  0  0  0  0  0
  161.3018   43.8677  148.6428 O   0  0  0  0  0  0  0  0  0  0  0  0
  159.8929   43.7117  146.4976 O   0  0  0  0  0  0  0  0  0  0  0  0
  160.2691   45.9691  147.5653 O   0  0  0  0  0  0  0  0  0  0  0  0
  161.2439   46.7559  148.2373 C   0  0  0  0  0  0  0  0  0  0  0  0
  160.8937   48.2301  148.1193 C   0  0  1  0  0  0  0  0  0  0  0  0
  161.7442   48.8068  147.1385 O   0  0  0  0  0  0  0  0  0  0  0  0
  159.4676   48.5359  147.6793 C   0  0  1  0  0  0  0  0  0  0  0  0
  158.7004   48.9510  148.7998 O   0  0  0  0  0  0  0  0  0  0  0  0
  159.6305   49.7225  146.7561 C   0  0  1  0  0  0  0  0  0  0  0  0
  159.5403   50.9330  147.5102 O   0  0  0  0  0  0  0  0  0  0  0  0
  161.0352   49.6391  146.2333 C   0  0  2  0  0  0  0  0  0  0  0  0
  161.0213   48.9878  144.9020 N   0  0  0  0  0  0  0  0  0  0  0  0
  160.3782   47.8480  144.5942 C   0  0  0  0  0  0  0  0  0  0  0  0
  160.5828   47.5203  143.2958 N   0  0  0  0  0  0  0  0  0  0  0  0
  161.3725   48.4612  142.7481 C   0  0  0  0  0  0  0  0  0  0  0  0
  161.9668   48.7186  141.4153 C   0  0  0  0  0  0  0  0  0  0  0  0
  161.7605   47.9240  140.4666 O   0  0  0  0  0  0  0  0  0  0  0  0
  162.7254   49.8182  141.2677 N   0  0  0  0  0  0  0  0  0  0  0  0
  162.9451   50.6671  142.2895 C   0  0  0  0  0  0  0  0  0  0  0  0
  163.7127   51.7602  142.0819 N   0  0  0  0  0  0  0  0  0  0  0  0
  162.4341   50.4919  143.5293 N   0  0  0  0  0  0  0  0  0  0  0  0
  161.6552   49.4267  143.8148 C   0  0  0  0  0  0  0  0  0  0  0  0
  157.0836   49.0966  148.7692 P   0  0  2  0  0  0  0  0  0  0  0  0
  156.6811   49.8982  147.5553 O   0  0  0  0  0  0  0  0  0  0  0  0
  156.6750   49.5341  150.1633 O   0  0  0  0  0  0  0  0  0  0  0  0
  156.6036   47.5737  148.5245 O   0  0  0  0  0  0  0  0  0  0  0  0
  156.5560   46.6544  149.6149 C   0  0  0  0  0  0  0  0  0  0  0  0
  156.5396   45.1893  149.1679 C   0  0  1  0  0  0  0  0  0  0  0  0
  155.2548   44.8748  148.6262 O   0  0  0  0  0  0  0  0  0  0  0  0
  157.5699   44.8268  148.1006 C   0  0  1  0  0  0  0  0  0  0  0  0
  158.7700   44.2993  148.6642 O   0  0  0  0  0  0  0  0  0  0  0  0
  156.8329   43.7836  147.2816 C   0  0  1  0  0  0  0  0  0  0  0  0
  157.0074   42.4797  147.8430 O   0  0  0  0  0  0  0  0  0  0  0  0
  155.3659   44.1388  147.4051 C   0  0  2  0  0  0  0  0  0  0  0  0
  154.9726   45.0210  146.2785 N   0  0  0  0  0  0  0  0  0  0  0  0
  155.6504   46.1070  145.8568 C   0  0  0  0  0  0  0  0  0  0  0  0
  155.0437   46.7021  144.7924 N   0  0  0  0  0  0  0  0  0  0  0  0
  153.9468   45.9819  144.5089 C   0  0  0  0  0  0  0  0  0  0  0  0
  152.8444   46.0555  143.5164 C   0  0  0  0  0  0  0  0  0  0  0  0
  152.7907   46.9456  142.6406 O   0  0  0  0  0  0  0  0  0  0  0  0
  151.9044   45.1104  143.5696 N   0  0  0  0  0  0  0  0  0  0  0  0
  151.9205   44.1305  144.4863 C   0  0  0  0  0  0  0  0  0  0  0  0
  150.9171   43.2407  144.4570 N   0  0  0  0  0  0  0  0  0  0  0  0
  152.8844   44.0011  145.4277 N   0  0  0  0  0  0  0  0  0  0  0  0
  153.9064   44.8802  145.4913 C   0  0  0  0  0  0  0  0  0  0  0  0
  1  3  2  6  0  0  0
  1 32  1  0  0  0  0
  1  2  1  0  0  0  0
  1  4  1  0  0  0  0
  4  5  1  0  0  0  0
  6  5  1  6  0  0  0
  7  6  1  0  0  0  0
  8  6  1  0  0  0  0
  8 10  1  0  0  0  0
  8  9  1  1  0  0  0
 10 11  1  1  0  0  0
 12 13  1  6  0  0  0
 12  7  1  0  0  0  0
 12 10  1  0  0  0  0
 14 13  1  0  0  0  0
 15 16  1  0  0  0  0
 15 14  2  0  0  0  0
 16 23  2  0  0  0  0
 17 16  1  0  0  0  0
 17 19  1  0  0  0  0
 18 17  2  0  0  0  0
 19 20  2  0  0  0  0
 20 22  1  0  0  0  0
 20 21  1  0  0  0  0
 23 13  1  0  0  0  0
 23 22  1  0  0  0  0
 24 25  2  6  0  0  0
 24  9  1  0  0  0  0
 24 26  1  0  0  0  0
 27 28  1  0  0  0  0
 27 24  1  0  0  0  0
 29 30  1  6  0  0  0
 29 28  1  0  0  0  0
 31 32  1  1  0  0  0
 31 29  1  0  0  0  0
 33 34  1  1  0  0  0
 33 35  1  0  0  0  0
 33 31  1  0  0  0  0
 35 36  1  6  0  0  0
 35 30  1  0  0  0  0
 36 37  1  0  0  0  0
 38 37  2  0  0  0  0
 39 38  1  0  0  0  0
 40 41  2  0  0  0  0
 40 39  1  0  0  0  0
 42 40  1  0  0  0  0
 43 42  2  0  0  0  0
 43 45  1  0  0  0  0
 44 43  1  0  0  0  0
 45 46  1  0  0  0  0
 46 39  2  0  0  0  0
 46 36  1  0  0  0  0
M  END
>  <CHROM.1>
67.18771388,67.35009967,158.13562147,46.96960726,146.16688772,-0.36164323
0.45310126,1.85776156

>  <Name>
lig.pdb

>  <RI>
0

>  <Rbt.Current_Directory>
/home/itssahil/PROJECTS/Mol_Feturizer/New_Systems/rnas/4yb0

>  <Rbt.Executable>
rbdock ($Id: //depot/dev/client3/rdock/2013.1/src/exe/rbdock.cxx#4 $)

>  <Rbt.Library>
libRbt.so (2013.1, Build901 2013/11/27)

>  <Rbt.Parameter_File>
/export/apps/rDock/src/rDock_2013.1_src/data/scripts/dock_solv.prm

>  <Rbt.Receptor>
prm/pocket_docking_7.prm

>  <SCORE>
-26.2557

>  <SCORE.INTER>
-26.262

>  <SCORE.INTER.CONST>
1

>  <SCORE.INTER.POLAR>
0

>  <SCORE.INTER.ROT>
2

>  <SCORE.INTER.SOLV>
19.3444

>  <SCORE.INTER.VDW>
-28.8895

>  <SCORE.INTER.norm>
-0.570913

>  <SCORE.INTRA>
0.00628983

>  <SCORE.INTRA.DIHEDRAL>
0.0550009

>  <SCORE.INTRA.DIHEDRAL.0>
4.74153

>  <SCORE.INTRA.POLAR>
0

>  <SCORE.INTRA.POLAR.0>
0

>  <SCORE.INTRA.REPUL>
0

>  <SCORE.INTRA.REPUL.0>
0

>  <SCORE.INTRA.SOLV>
-0.116215

>  <SCORE.INTRA.SOLV.lig_0>
-60.4375

>  <SCORE.INTRA.VDW>
0.0368968

>  <SCORE.INTRA.VDW.0>
-1.83689

>  <SCORE.INTRA.norm>
0.000136736

>  <SCORE.RESTR>
0

>  <SCORE.RESTR.CAVITY>
0

>  <SCORE.RESTR.norm>
0

>  <SCORE.SYSTEM>
0

>  <SCORE.SYSTEM.CONST>
0

>  <SCORE.SYSTEM.DIHEDRAL>
0

>  <SCORE.SYSTEM.SOLV>
0

>  <SCORE.SYSTEM.norm>
0

>  <SCORE.heavy>
46

>  <SCORE.norm>
-0.570776

>  <RMSD>
6.254

$$$$
lig.pdb
 OpenBabel11021811523D
libRbt.so/2013.1/901 2013/11/27
 46 52  0  0  0  0  0  0  0  0999 V2000
  159.8512   47.9240  147.9762 P   0  0  2  0  0  0  0  0  0  0  0  0
  159.9200   49.1958  148.7933 O   0  0  0  0  0  0  0  0  0  0  0  0
  161.1307   47.4680  147.3235 O   0  0  0  0  0  0  0  0  0  0  0  0
  158.7127   48.0172  146.8447 O   0  0  0  0  0  0  0  0  0  0  0  0
  157.7791   49.0889  146.8148 C   0  0  0  0  0  0  0  0  0  0  0  0
  156.6060   48.7314  145.9171 C   0  0  1  0  0  0  0  0  0  0  0  0
  156.7687   49.4209  144.6858 O   0  0  0  0  0  0  0  0  0  0  0  0
  156.4712   47.2556  145.5643 C   0  0  1  0  0  0  0  0  0  0  0  0
  155.4249   46.6750  146.3290 O   0  0  0  0  0  0  0  0  0  0  0  0
  156.0375   47.2778  144.1157 C   0  0  1  0  0  0  0  0  0  0  0  0
  154.6108   47.3123  144.0425 O   0  0  0  0  0  0  0  0  0  0  0  0
  156.5333   48.5830  143.5645 C   0  0  2  0  0  0  0  0  0  0  0  0
  157.8193   48.3580  142.8627 N   0  0  0  0  0  0  0  0  0  0  0  0
  157.9887   47.6098  141.7586 C   0  0  0  0  0  0  0  0  0  0  0  0
  159.2904   47.6005  141.3836 N   0  0  0  0  0  0  0  0  0  0  0  0
  159.9811   48.3545  142.2573 C   0  0  0  0  0  0  0  0  0  0  0  0
  161.3941   48.7629  142.4376 C   0  0  0  0  0  0  0  0  0  0  0  0
  162.2748   48.3645  141.6378 O   0  0  0  0  0  0  0  0  0  0  0  0
  161.6890   49.5621  143.4773 N   0  0  0  0  0  0  0  0  0  0  0  0
  160.7403   49.9857  144.3338 C   0  0  0  0  0  0  0  0  0  0  0  0
  161.0941   50.7924  145.3592 N   0  0  0  0  0  0  0  0  0  0  0  0
  159.4344   49.6509  144.2274 N   0  0  0  0  0  0  0  0  0  0  0  0
  159.0019   48.8520  143.2286 C   0  0  0  0  0  0  0  0  0  0  0  0
  155.1718   45.0740  146.4233 P   0  0  2  0  0  0  0  0  0  0  0  0
  155.1651   44.4905  145.0314 O   0  0  0  0  0  0  0  0  0  0  0  0
  153.9858   44.8905  147.3516 O   0  0  0  0  0  0  0  0  0  0  0  0
  156.5124   44.5544  147.1596 O   0  0  0  0  0  0  0  0  0  0  0  0
  156.6434   44.6736  148.5755 C   0  0  0  0  0  0  0  0  0  0  0  0
  158.0947   44.5805  149.0568 C   0  0  1  0  0  0  0  0  0  0  0  0
  158.5388   43.2254  148.9600 O   0  0  0  0  0  0  0  0  0  0  0  0
  159.0923   45.4296  148.2720 C   0  0  1  0  0  0  0  0  0  0  0  0
  159.3175   46.7005  148.8803 O   0  0  0  0  0  0  0  0  0  0  0  0
  160.3414   44.5686  148.3003 C   0  0  1  0  0  0  0  0  0  0  0  0
  161.1076   44.8225  149.4811 O   0  0  0  0  0  0  0  0  0  0  0  0
  159.8433   43.1406  148.3803 C   0  0  2  0  0  0  0  0  0  0  0  0
  159.7221   42.5803  147.0116 N   0  0  0  0  0  0  0  0  0  0  0  0
  158.7650   41.7288  146.5926 C   0  0  0  0  0  0  0  0  0  0  0  0
  158.9145   41.4043  145.2782 N   0  0  0  0  0  0  0  0  0  0  0  0
  159.9920   42.0661  144.8275 C   0  0  0  0  0  0  0  0  0  0  0  0
  160.7227   42.1709  143.5388 C   0  0  0  0  0  0  0  0  0  0  0  0
  160.3548   41.5646  142.5097 O   0  0  0  0  0  0  0  0  0  0  0  0
  161.7925   42.9670  143.5010 N   0  0  0  0  0  0  0  0  0  0  0  0
  162.2241   43.6437  144.5764 C   0  0  0  0  0  0  0  0  0  0  0  0
  163.3191   44.4043  144.4291 N   0  0  0  0  0  0  0  0  0  0  0  0
  161.6185   43.5933  145.7859 N   0  0  0  0  0  0  0  0  0  0  0  0
  160.5180   42.8349  145.9733 C   0  0  0  0  0  0  0  0  0  0  0  0
  1  3  2  6  0  0  0
  1 32  1  0  0  0  0
  1  2  1  0  0  0  0
  1  4  1  0  0  0  0
  4  5  1  0  0  0  0
  6  5  1  1  0  0  0
  7  6  1  0  0  0  0
  8  6  1  0  0  0  0
  8 10  1  0  0  0  0
  8  9  1  1  0  0  0
 10 11  1  1  0  0  0
 12 13  1  1  0  0  0
 12  7  1  0  0  0  0
 12 10  1  0  0  0  0
 14 13  1  0  0  0  0
 15 16  1  0  0  0  0
 15 14  2  0  0  0  0
 16 23  2  0  0  0  0
 17 16  1  0  0  0  0
 17 19  1  0  0  0  0
 18 17  2  0  0  0  0
 19 20  2  0  0  0  0
 20 22  1  0  0  0  0
 20 21  1  0  0  0  0
 23 13  1  0  0  0  0
 23 22  1  0  0  0  0
 24 25  2  6  0  0  0
 24  9  1  0  0  0  0
 24 26  1  0  0  0  0
 27 28  1  0  0  0  0
 27 24  1  0  0  0  0
 29 30  1  6  0  0  0
 29 28  1  0  0  0  0
 31 32  1  1  0  0  0
 31 29  1  0  0  0  0
 33 34  1  1  0  0  0
 33 35  1  0  0  0  0
 33 31  1  0  0  0  0
 35 36  1  6  0  0  0
 35 30  1  0  0  0  0
 36 37  1  0  0  0  0
 38 37  2  0  0  0  0
 39 38  1  0  0  0  0
 40 41  2  0  0  0  0
 40 39  1  0  0  0  0
 42 40  1  0  0  0  0
 43 42  2  0  0  0  0
 43 45  1  0  0  0  0
 44 43  1  0  0  0  0
 45 46  1  0  0  0  0
 46 39  2  0  0  0  0
 46 36  1  0  0  0  0
M  END
>  <CHROM.1>
179.70048682,-29.09691703,158.83318114,46.11971404,145.68601851,1.52414488
0.50969848,-0.47626923

>  <Name>
lig.pdb

>  <RI>
0

>  <Rbt.Current_Directory>
/home/itssahil/PROJECTS/Mol_Feturizer/New_Systems/rnas/4yb0

>  <Rbt.Executable>
rbdock ($Id: //depot/dev/client3/rdock/2013.1/src/exe/rbdock.cxx#4 $)

>  <Rbt.Library>
libRbt.so (2013.1, Build901 2013/11/27)

>  <Rbt.Parameter_File>
/export/apps/rDock/src/rDock_2013.1_src/data/scripts/dock_solv.prm

>  <Rbt.Receptor>
prm/pocket_docking_5.prm

>  <SCORE>
-15.7447

>  <SCORE.INTER>
-15.6823

>  <SCORE.INTER.CONST>
1

>  <SCORE.INTER.POLAR>
0

>  <SCORE.INTER.ROT>
2

>  <SCORE.INTER.SOLV>
14.9419

>  <SCORE.INTER.VDW>
-20.3688

>  <SCORE.INTER.norm>
-0.340919

>  <SCORE.INTRA>
-0.0700462

>  <SCORE.INTRA.DIHEDRAL>
-0.00145084

>  <SCORE.INTRA.DIHEDRAL.0>
4.74153

>  <SCORE.INTRA.POLAR>
0

>  <SCORE.INTRA.POLAR.0>
0

>  <SCORE.INTRA.REPUL>
0.0134019

>  <SCORE.INTRA.REPUL.0>
0

>  <SCORE.INTRA.SOLV>
1.61886

>  <SCORE.INTRA.SOLV.lig_0>
-60.4375

>  <SCORE.INTRA.VDW>
-0.945763

>  <SCORE.INTRA.VDW.0>
-1.83689

>  <SCORE.INTRA.norm>
-0.00152274

>  <SCORE.RESTR>
0.0076267

>  <SCORE.RESTR.CAVITY>
0.0076267

>  <SCORE.RESTR.norm>
0.000165798

>  <SCORE.SYSTEM>
0

>  <SCORE.SYSTEM.CONST>
0

>  <SCORE.SYSTEM.DIHEDRAL>
0

>  <SCORE.SYSTEM.SOLV>
0

>  <SCORE.SYSTEM.norm>
0

>  <SCORE.heavy>
46

>  <SCORE.norm>
-0.342276

>  <RMSD>
6.323

$$$$
lig.pdb
 OpenBabel11021811523D
libRbt.so/2013.1/901 2013/11/27
 46 52  0  0  0  0  0  0  0  0999 V2000
  156.7278   46.9070  143.1574 P   0  0  2  0  0  0  0  0  0  0  0  0
  155.5839   47.6371  142.4883 O   0  0  0  0  0  0  0  0  0  0  0  0
  158.1147   47.2149  142.6547 O   0  0  0  0  0  0  0  0  0  0  0  0
  156.5144   45.3142  143.1059 O   0  0  0  0  0  0  0  0  0  0  0  0
  155.2863   44.7414  142.6763 C   0  0  0  0  0  0  0  0  0  0  0  0
  155.2194   43.2815  143.0936 C   0  0  1  0  0  0  0  0  0  0  0  0
  155.4841   42.4844  141.9479 O   0  0  0  0  0  0  0  0  0  0  0  0
  156.2260   42.8517  144.1532 C   0  0  1  0  0  0  0  0  0  0  0  0
  155.5745   42.7278  145.4089 O   0  0  0  0  0  0  0  0  0  0  0  0
  156.6438   41.4700  143.7025 C   0  0  1  0  0  0  0  0  0  0  0  0
  155.7790   40.4932  144.2856 O   0  0  0  0  0  0  0  0  0  0  0  0
  156.4019   41.4368  142.2213 C   0  0  2  0  0  0  0  0  0  0  0  0
  157.6725   41.7231  141.5141 N   0  0  0  0  0  0  0  0  0  0  0  0
  157.9945   42.8863  140.9217 C   0  0  0  0  0  0  0  0  0  0  0  0
  159.2220   42.8090  140.3540 N   0  0  0  0  0  0  0  0  0  0  0  0
  159.7084   41.5755  140.5794 C   0  0  0  0  0  0  0  0  0  0  0  0
  160.9516   40.8377  140.2541 C   0  0  0  0  0  0  0  0  0  0  0  0
  161.8639   41.3942  139.5968 O   0  0  0  0  0  0  0  0  0  0  0  0
  161.0589   39.5682  140.6825 N   0  0  0  0  0  0  0  0  0  0  0  0
  160.0762   38.9750  141.3863 C   0  0  0  0  0  0  0  0  0  0  0  0
  160.2408   37.6972  141.7957 N   0  0  0  0  0  0  0  0  0  0  0  0
  158.9179   39.5898  141.7166 N   0  0  0  0  0  0  0  0  0  0  0  0
  158.6800   40.8666  141.3474 C   0  0  0  0  0  0  0  0  0  0  0  0
  156.3704   42.5554  146.8135 P   0  0  2  0  0  0  0  0  0  0  0  0
  157.4012   41.4624  146.6681 O   0  0  0  0  0  0  0  0  0  0  0  0
  155.3067   42.4855  147.8930 O   0  0  0  0  0  0  0  0  0  0  0  0
  157.1647   43.9567  146.9354 O   0  0  0  0  0  0  0  0  0  0  0  0
  156.4882   45.1249  147.3979 C   0  0  0  0  0  0  0  0  0  0  0  0
  157.2079   46.4252  147.0265 C   0  0  1  0  0  0  0  0  0  0  0  0
  158.3722   46.5707  147.8426 O   0  0  0  0  0  0  0  0  0  0  0  0
  157.6718   46.5159  145.5744 C   0  0  1  0  0  0  0  0  0  0  0  0
  156.7253   47.1883  144.7449 O   0  0  0  0  0  0  0  0  0  0  0  0
  158.9637   47.3021  145.6969 C   0  0  1  0  0  0  0  0  0  0  0  0
  158.7080   48.7090  145.6663 O   0  0  0  0  0  0  0  0  0  0  0  0
  159.5080   46.9691  147.0704 C   0  0  2  0  0  0  0  0  0  0  0  0
  160.4426   45.8209  146.9685 N   0  0  0  0  0  0  0  0  0  0  0  0
  161.5601   45.7812  146.2161 C   0  0  0  0  0  0  0  0  0  0  0  0
  162.2153   44.5938  146.3428 N   0  0  0  0  0  0  0  0  0  0  0  0
  161.5107   43.8434  147.2046 C   0  0  0  0  0  0  0  0  0  0  0  0
  161.6263   42.4785  147.7787 C   0  0  0  0  0  0  0  0  0  0  0  0
  162.5768   41.7151  147.5036 O   0  0  0  0  0  0  0  0  0  0  0  0
  160.6801   42.0888  148.6346 N   0  0  0  0  0  0  0  0  0  0  0  0
  159.6433   42.8733  148.9669 C   0  0  0  0  0  0  0  0  0  0  0  0
  158.7422   42.3749  149.8266 N   0  0  0  0  0  0  0  0  0  0  0  0
  159.4637   44.1236  148.4803 N   0  0  0  0  0  0  0  0  0  0  0  0
  160.3464   44.6564  147.6096 C   0  0  0  0  0  0  0  0  0  0  0  0
  1  3  2  6  0  0  0
  1 32  1  0  0  0  0
  1  2  1  0  0  0  0
  1  4  1  0  0  0  0
  4  5  1  0  0  0  0
  6  5  1  6  0  0  0
  7  6  1  0  0  0  0
  8  6  1  0  0  0  0
  8 10  1  0  0  0  0
  8  9  1  1  0  0  0
 10 11  1  1  0  0  0
 12 13  1  6  0  0  0
 12  7  1  0  0  0  0
 12 10  1  0  0  0  0
 14 13  1  0  0  0  0
 15 16  1  0  0  0  0
 15 14  2  0  0  0  0
 16 23  2  0  0  0  0
 17 16  1  0  0  0  0
 17 19  1  0  0  0  0
 18 17  2  0  0  0  0
 19 20  2  0  0  0  0
 20 22  1  0  0  0  0
 20 21  1  0  0  0  0
 23 13  1  0  0  0  0
 23 22  1  0  0  0  0
 24 25  2  1  0  0  0
 24  9  1  0  0  0  0
 24 26  1  0  0  0  0
 27 28  1  0  0  0  0
 27 24  1  0  0  0  0
 29 30  1  1  0  0  0
 29 28  1  0  0  0  0
 31 32  1  6  0  0  0
 31 29  1  0  0  0  0
 33 34  1  1  0  0  0
 33 35  1  0  0  0  0
 33 31  1  0  0  0  0
 35 36  1  6  0  0  0
 35 30  1  0  0  0  0
 36 37  1  0  0  0  0
 38 37  2  0  0  0  0
 39 38  1  0  0  0  0
 40 41  2  0  0  0  0
 40 39  1  0  0  0  0
 42 40  1  0  0  0  0
 43 42  2  0  0  0  0
 43 45  1  0  0  0  0
 44 43  1  0  0  0  0
 45 46  1  0  0  0  0
 46 39  2  0  0  0  0
 46 36  1  0  0  0  0
M  END
>  <CHROM.1>
11.34026827,173.49118755,158.28177451,43.59372484,144.67897004,1.67115812
-0.88344512,0.96359539

>  <Name>
lig.pdb

>  <RI>
0

>  <Rbt.Current_Directory>
/home/itssahil/PROJECTS/Mol_Feturizer/New_Systems/rnas/4yb0

>  <Rbt.Executable>
rbdock ($Id: //depot/dev/client3/rdock/2013.1/src/exe/rbdock.cxx#4 $)

>  <Rbt.Library>
libRbt.so (2013.1, Build901 2013/11/27)

>  <Rbt.Parameter_File>
/export/apps/rDock/src/rDock_2013.1_src/data/scripts/dock_solv.prm

>  <Rbt.Receptor>
prm/pocket_docking_3.prm

>  <SCORE>
1824.39

>  <SCORE.INTER>
1813.96

>  <SCORE.INTER.CONST>
1

>  <SCORE.INTER.POLAR>
0

>  <SCORE.INTER.ROT>
2

>  <SCORE.INTER.SOLV>
41.8159

>  <SCORE.INTER.VDW>
1190.43

>  <SCORE.INTER.norm>
39.4339

>  <SCORE.INTRA>
-0.363176

>  <SCORE.INTRA.DIHEDRAL>
0.0536543

>  <SCORE.INTRA.DIHEDRAL.0>
4.74153

>  <SCORE.INTRA.POLAR>
0

>  <SCORE.INTRA.POLAR.0>
0

>  <SCORE.INTRA.REPUL>
0

>  <SCORE.INTRA.REPUL.0>
0

>  <SCORE.INTRA.SOLV>
2.19094

>  <SCORE.INTRA.SOLV.lig_0>
-60.4375

>  <SCORE.INTRA.VDW>
-1.48547

>  <SCORE.INTRA.VDW.0>
-1.83689

>  <SCORE.INTRA.norm>
-0.00789514

>  <SCORE.RESTR>
10.7917

>  <SCORE.RESTR.CAVITY>
10.7917

>  <SCORE.RESTR.norm>
0.234602

>  <SCORE.SYSTEM>
0

>  <SCORE.SYSTEM.CONST>
0

>  <SCORE.SYSTEM.DIHEDRAL>
0

>  <SCORE.SYSTEM.SOLV>
0

>  <SCORE.SYSTEM.norm>
0

>  <SCORE.heavy>
46

>  <SCORE.norm>
39.6606

>  <RMSD>
6.362

$$$$
lig.pdb
 OpenBabel11021811523D
libRbt.so/2013.1/901 2013/11/27
 46 52  0  0  0  0  0  0  0  0999 V2000
  155.4736   44.7736  147.1440 P   0  0  2  0  0  0  0  0  0  0  0  0
  154.3808   44.4966  148.1532 O   0  0  0  0  0  0  0  0  0  0  0  0
  155.5136   43.8848  145.9276 O   0  0  0  0  0  0  0  0  0  0  0  0
  156.9257   44.7507  147.8337 O   0  0  0  0  0  0  0  0  0  0  0  0
  157.0780   44.6965  149.2462 C   0  0  0  0  0  0  0  0  0  0  0  0
  158.4974   45.0797  149.6312 C   0  0  1  0  0  0  0  0  0  0  0  0
  159.2027   43.8888  149.9510 O   0  0  0  0  0  0  0  0  0  0  0  0
  159.3092   45.7774  148.5472 C   0  0  1  0  0  0  0  0  0  0  0  0
  159.3852   47.1675  148.8272 O   0  0  0  0  0  0  0  0  0  0  0  0
  160.6928   45.1892  148.7097 C   0  0  1  0  0  0  0  0  0  0  0  0
  161.4461   45.9818  149.6297 O   0  0  0  0  0  0  0  0  0  0  0  0
  160.4900   43.8489  149.3544 C   0  0  2  0  0  0  0  0  0  0  0  0
  160.4949   42.7995  148.3077 N   0  0  0  0  0  0  0  0  0  0  0  0
  159.8094   41.6439  148.3537 C   0  0  0  0  0  0  0  0  0  0  0  0
  160.0470   40.9036  147.2443 N   0  0  0  0  0  0  0  0  0  0  0  0
  160.9016   41.5871  146.4625 C   0  0  0  0  0  0  0  0  0  0  0  0
  161.5578   41.3752  145.1508 C   0  0  0  0  0  0  0  0  0  0  0  0
  161.3492   40.3218  144.5020 O   0  0  0  0  0  0  0  0  0  0  0  0
  162.3739   42.3404  144.6937 N   0  0  0  0  0  0  0  0  0  0  0  0
  162.5955   43.4684  145.3946 C   0  0  0  0  0  0  0  0  0  0  0  0
  163.4226   44.4075  144.8834 N   0  0  0  0  0  0  0  0  0  0  0  0
  162.0301   43.7248  146.5960 N   0  0  0  0  0  0  0  0  0  0  0  0
  161.1901   42.8379  147.1711 C   0  0  0  0  0  0  0  0  0  0  0  0
  159.9312   48.2635  147.7610 P   0  0  2  0  0  0  0  0  0  0  0  0
  161.2464   47.7892  147.1922 O   0  0  0  0  0  0  0  0  0  0  0  0
  159.8199   49.6108  148.4497 O   0  0  0  0  0  0  0  0  0  0  0  0
  158.8328   48.1744  146.5799 O   0  0  0  0  0  0  0  0  0  0  0  0
  157.5811   48.8464  146.7145 C   0  0  0  0  0  0  0  0  0  0  0  0
  156.5026   48.3069  145.7698 C   0  0  1  0  0  0  0  0  0  0  0  0
  156.7831   48.7387  144.4366 O   0  0  0  0  0  0  0  0  0  0  0  0
  156.3834   46.7852  145.7257 C   0  0  1  0  0  0  0  0  0  0  0  0
  155.3831   46.2947  146.6173 O   0  0  0  0  0  0  0  0  0  0  0  0
  156.0112   46.5325  144.2767 C   0  0  1  0  0  0  0  0  0  0  0  0
  154.5950   46.6136  144.0935 O   0  0  0  0  0  0  0  0  0  0  0  0
  156.6360   47.6706  143.4970 C   0  0  2  0  0  0  0  0  0  0  0  0
  157.9817   47.2654  143.0204 N   0  0  0  0  0  0  0  0  0  0  0  0
  158.7187   46.2515  143.5157 C   0  0  0  0  0  0  0  0  0  0  0  0
  159.9054   46.1193  142.8602 N   0  0  0  0  0  0  0  0  0  0  0  0
  159.9396   47.0665  141.9094 C   0  0  0  0  0  0  0  0  0  0  0  0
  160.9025   47.5020  140.8660 C   0  0  0  0  0  0  0  0  0  0  0  0
  161.9988   46.9294  140.6861 O   0  0  0  0  0  0  0  0  0  0  0  0
  160.5479   48.5286  140.0913 N   0  0  0  0  0  0  0  0  0  0  0  0
  159.3799   49.1724  140.2403 C   0  0  0  0  0  0  0  0  0  0  0  0
  159.1318   50.2006  139.4153 N   0  0  0  0  0  0  0  0  0  0  0  0
  158.4555   48.8414  141.1721 N   0  0  0  0  0  0  0  0  0  0  0  0
  158.6726   47.8164  142.0228 C   0  0  0  0  0  0  0  0  0  0  0  0
  1  3  2  6  0  0  0
  1 32  1  0  0  0  0
  1  2  1  0  0  0  0
  1  4  1  0  0  0  0
  4  5  1  0  0  0  0
  6  5  1  6  0  0  0
  7  6  1  0  0  0  0
  8  6  1  0  0  0  0
  8 10  1  0  0  0  0
  8  9  1  1  0  0  0
 10 11  1  1  0  0  0
 12 13  1  6  0  0  0
 12  7  1  0  0  0  0
 12 10  1  0  0  0  0
 14 13  1  0  0  0  0
 15 16  1  0  0  0  0
 15 14  2  0  0  0  0
 16 23  2  0  0  0  0
 17 16  1  0  0  0  0
 17 19  1  0  0  0  0
 18 17  2  0  0  0  0
 19 20  2  0  0  0  0
 20 22  1  0  0  0  0
 20 21  1  0  0  0  0
 23 13  1  0  0  0  0
 23 22  1  0  0  0  0
 24 25  2  6  0  0  0
 24  9  1  0  0  0  0
 24 26  1  0  0  0  0
 27 28  1  0  0  0  0
 27 24  1  0  0  0  0
 29 30  1  6  0  0  0
 29 28  1  0  0  0  0
 31 32  1  1  0  0  0
 31 29  1  0  0  0  0
 33 34  1  1  0  0  0
 33 35  1  0  0  0  0
 33 31  1  0  0  0  0
 35 36  1  1  0  0  0
 35 30  1  0  0  0  0
 36 37  1  0  0  0  0
 38 37  2  0  0  0  0
 39 38  1  0  0  0  0
 40 41  2  0  0  0  0
 40 39  1  0  0  0  0
 42 40  1  0  0  0  0
 43 42  2  0  0  0  0
 43 45  1  0  0  0  0
 44 43  1  0  0  0  0
 45 46  1  0  0  0  0
 46 39  2  0  0  0  0
 46 36  1  0  0  0  0
M  END
>  <CHROM.1>
-33.91798453,95.71267524,158.99333876,45.81147851,145.78532365,1.45969324
-0.60139373,2.14344603

>  <Name>
lig.pdb

>  <RI>
0

>  <Rbt.Current_Directory>
/home/itssahil/PROJECTS/Mol_Feturizer/New_Systems/rnas/4yb0

>  <Rbt.Executable>
rbdock ($Id: //depot/dev/client3/rdock/2013.1/src/exe/rbdock.cxx#4 $)

>  <Rbt.Library>
libRbt.so (2013.1, Build901 2013/11/27)

>  <Rbt.Parameter_File>
/export/apps/rDock/src/rDock_2013.1_src/data/scripts/dock_solv.prm

>  <Rbt.Receptor>
prm/pocket_docking_6.prm

>  <SCORE>
-21.0776

>  <SCORE.INTER>
-22.1641

>  <SCORE.INTER.CONST>
1

>  <SCORE.INTER.POLAR>
0

>  <SCORE.INTER.ROT>
2

>  <SCORE.INTER.SOLV>
20.2835

>  <SCORE.INTER.VDW>
-26.4706

>  <SCORE.INTER.norm>
-0.481829

>  <SCORE.INTRA>
1.08651

>  <SCORE.INTRA.DIHEDRAL>
0.0456033

>  <SCORE.INTRA.DIHEDRAL.0>
4.74153

>  <SCORE.INTRA.POLAR>
0

>  <SCORE.INTRA.POLAR.0>
0

>  <SCORE.INTRA.REPUL>
0.0155117

>  <SCORE.INTRA.REPUL.0>
0

>  <SCORE.INTRA.SOLV>
-0.0142376

>  <SCORE.INTRA.SOLV.lig_0>
-60.4375

>  <SCORE.INTRA.VDW>
0.993272

>  <SCORE.INTRA.VDW.0>
-1.83689

>  <SCORE.INTRA.norm>
0.0236199

>  <SCORE.RESTR>
0

>  <SCORE.RESTR.CAVITY>
0

>  <SCORE.RESTR.norm>
0

>  <SCORE.SYSTEM>
0

>  <SCORE.SYSTEM.CONST>
0

>  <SCORE.SYSTEM.DIHEDRAL>
0

>  <SCORE.SYSTEM.SOLV>
0

>  <SCORE.SYSTEM.norm>
0

>  <SCORE.heavy>
46

>  <SCORE.norm>
-0.458209

>  <RMSD>
6.479

$$$$
lig.pdb
 OpenBabel11021811523D
libRbt.so/2013.1/901 2013/11/27
 46 52  0  0  0  0  0  0  0  0999 V2000
  155.4794   44.8570  147.0843 P   0  0  2  0  0  0  0  0  0  0  0  0
  154.3862   44.5840  148.0942 O   0  0  0  0  0  0  0  0  0  0  0  0
  155.5133   43.9705  145.8661 O   0  0  0  0  0  0  0  0  0  0  0  0
  156.9322   44.8248  147.7725 O   0  0  0  0  0  0  0  0  0  0  0  0
  157.0856   44.7668  149.1847 C   0  0  0  0  0  0  0  0  0  0  0  0
  158.5075   45.1415  149.5690 C   0  0  1  0  0  0  0  0  0  0  0  0
  159.2067   43.9461  149.8856 O   0  0  0  0  0  0  0  0  0  0  0  0
  159.3219   45.8370  148.4856 C   0  0  1  0  0  0  0  0  0  0  0  0
  159.4058   47.2261  148.7684 O   0  0  0  0  0  0  0  0  0  0  0  0
  160.7026   45.2409  148.6454 C   0  0  1  0  0  0  0  0  0  0  0  0
  161.4611   46.0275  149.5663 O   0  0  0  0  0  0  0  0  0  0  0  0
  160.4931   43.9004  149.2876 C   0  0  2  0  0  0  0  0  0  0  0  0
  160.4912   42.8531  148.2387 N   0  0  0  0  0  0  0  0  0  0  0  0
  159.7901   41.7066  148.2776 C   0  0  0  0  0  0  0  0  0  0  0  0
  160.0254   40.9655  147.1683 N   0  0  0  0  0  0  0  0  0  0  0  0
  160.8941   41.6393  146.3937 C   0  0  0  0  0  0  0  0  0  0  0  0
  161.5562   41.4214  145.0859 C   0  0  0  0  0  0  0  0  0  0  0  0
  161.3382   40.3722  144.4336 O   0  0  0  0  0  0  0  0  0  0  0  0
  162.3880   42.3766  144.6363 N   0  0  0  0  0  0  0  0  0  0  0  0
  162.6199   43.5002  145.3411 C   0  0  0  0  0  0  0  0  0  0  0  0
  163.4627   44.4293  144.8374 N   0  0  0  0  0  0  0  0  0  0  0  0
  162.0498   43.7616  146.5392 N   0  0  0  0  0  0  0  0  0  0  0  0
  161.1944   42.8847  147.1069 C   0  0  0  0  0  0  0  0  0  0  0  0
  159.9567   48.3213  147.7039 P   0  0  2  0  0  0  0  0  0  0  0  0
  161.2687   47.8409  147.1327 O   0  0  0  0  0  0  0  0  0  0  0  0
  159.8536   49.6677  148.3955 O   0  0  0  0  0  0  0  0  0  0  0  0
  158.8566   48.2407  146.5238 O   0  0  0  0  0  0  0  0  0  0  0  0
  157.6088   48.9192  146.6610 C   0  0  0  0  0  0  0  0  0  0  0  0
  156.5263   48.3876  145.7164 C   0  0  1  0  0  0  0  0  0  0  0  0
  156.8078   48.8206  144.3837 O   0  0  0  0  0  0  0  0  0  0  0  0
  156.3988   46.8666  145.6693 C   0  0  1  0  0  0  0  0  0  0  0  0
  155.3968   46.3797  146.5610 O   0  0  0  0  0  0  0  0  0  0  0  0
  156.0237   46.6189  144.2201 C   0  0  1  0  0  0  0  0  0  0  0  0
  154.6078   46.7082  144.0386 O   0  0  0  0  0  0  0  0  0  0  0  0
  156.6539   47.7552  143.4422 C   0  0  2  0  0  0  0  0  0  0  0  0
  157.9968   47.3436  142.9633 N   0  0  0  0  0  0  0  0  0  0  0  0
  158.7249   46.3190  143.4496 C   0  0  0  0  0  0  0  0  0  0  0  0
  159.9113   46.1835  142.7943 N   0  0  0  0  0  0  0  0  0  0  0  0
  159.9545   47.1395  141.8528 C   0  0  0  0  0  0  0  0  0  0  0  0
  160.9222   47.5772  140.8148 C   0  0  0  0  0  0  0  0  0  0  0  0
  162.0140   46.9974  140.6307 O   0  0  0  0  0  0  0  0  0  0  0  0
  160.5770   48.6140  140.0496 N   0  0  0  0  0  0  0  0  0  0  0  0
  159.4141   49.2659  140.2034 C   0  0  0  0  0  0  0  0  0  0  0  0
  159.1754   50.3039  139.3881 N   0  0  0  0  0  0  0  0  0  0  0  0
  158.4859   48.9334  141.1308 N   0  0  0  0  0  0  0  0  0  0  0  0
  158.6935   47.8986  141.9719 C   0  0  0  0  0  0  0  0  0  0  0  0
  1  3  2  6  0  0  0
  1 32  1  0  0  0  0
  1  2  1  0  0  0  0
  1  4  1  0  0  0  0
  4  5  1  0  0  0  0
  6  5  1  6  0  0  0
  7  6  1  0  0  0  0
  8  6  1  0  0  0  0
  8 10  1  0  0  0  0
  8  9  1  1  0  0  0
 10 11  1  1  0  0  0
 12 13  1  6  0  0  0
 12  7  1  0  0  0  0
 12 10  1  0  0  0  0
 14 13  1  0  0  0  0
 15 16  1  0  0  0  0
 15 14  2  0  0  0  0
 16 23  2  0  0  0  0
 17 16  1  0  0  0  0
 17 19  1  0  0  0  0
 18 17  2  0  0  0  0
 19 20  2  0  0  0  0
 20 22  1  0  0  0  0
 20 21  1  0  0  0  0
 23 13  1  0  0  0  0
 23 22  1  0  0  0  0
 24 25  2  6  0  0  0
 24  9  1  0  0  0  0
 24 26  1  0  0  0  0
 27 28  1  0  0  0  0
 27 24  1  0  0  0  0
 29 30  1  6  0  0  0
 29 28  1  0  0  0  0
 31 32  1  1  0  0  0
 31 29  1  0  0  0  0
 33 34  1  1  0  0  0
 33 35  1  0  0  0  0
 33 31  1  0  0  0  0
 35 36  1  1  0  0  0
 35 30  1  0  0  0  0
 36 37  1  0  0  0  0
 38 37  2  0  0  0  0
 39 38  1  0  0  0  0
 40 41  2  0  0  0  0
 40 39  1  0  0  0  0
 42 40  1  0  0  0  0
 43 42  2  0  0  0  0
 43 45  1  0  0  0  0
 44 43  1  0  0  0  0
 45 46  1  0  0  0  0
 46 39  2  0  0  0  0
 46 36  1  0  0  0  0
M  END
>  <CHROM.1>
-33.29064365,96.19212996,159.00713212,45.87857104,145.72737093,1.45932057
-0.60388375,2.15011063

>  <Name>
lig.pdb

>  <RI>
0

>  <Rbt.Current_Directory>
/home/itssahil/PROJECTS/Mol_Feturizer/New_Systems/rnas/4yb0

>  <Rbt.Executable>
rbdock ($Id: //depot/dev/client3/rdock/2013.1/src/exe/rbdock.cxx#4 $)

>  <Rbt.Library>
libRbt.so (2013.1, Build901 2013/11/27)

>  <Rbt.Parameter_File>
/export/apps/rDock/src/rDock_2013.1_src/data/scripts/dock_solv.prm

>  <Rbt.Receptor>
prm/pocket_docking_8.prm

>  <SCORE>
-20.9951

>  <SCORE.INTER>
-22.0841

>  <SCORE.INTER.CONST>
1

>  <SCORE.INTER.POLAR>
0

>  <SCORE.INTER.ROT>
2

>  <SCORE.INTER.SOLV>
19.7878

>  <SCORE.INTER.VDW>
-26.252

>  <SCORE.INTER.norm>
-0.480089

>  <SCORE.INTRA>
1.08901

>  <SCORE.INTRA.DIHEDRAL>
0.0462823

>  <SCORE.INTRA.DIHEDRAL.0>
4.74153

>  <SCORE.INTRA.POLAR>
0

>  <SCORE.INTRA.POLAR.0>
0

>  <SCORE.INTRA.REPUL>
0.0159712

>  <SCORE.INTRA.REPUL.0>
0

>  <SCORE.INTRA.SOLV>
-0.0174741

>  <SCORE.INTRA.SOLV.lig_0>
-60.4375

>  <SCORE.INTRA.VDW>
0.994746

>  <SCORE.INTRA.VDW.0>
-1.83689

>  <SCORE.INTRA.norm>
0.023674

>  <SCORE.RESTR>
0

>  <SCORE.RESTR.CAVITY>
0

>  <SCORE.RESTR.norm>
0

>  <SCORE.SYSTEM>
0

>  <SCORE.SYSTEM.CONST>
0

>  <SCORE.SYSTEM.DIHEDRAL>
0

>  <SCORE.SYSTEM.SOLV>
0

>  <SCORE.SYSTEM.norm>
0

>  <SCORE.heavy>
46

>  <SCORE.norm>
-0.456415

>  <RMSD>
6.492

$$$$
lig.pdb
 OpenBabel11021811523D
libRbt.so/2013.1/901 2013/11/27
 46 52  0  0  0  0  0  0  0  0999 V2000
  159.2703   46.5633  150.5690 P   0  0  2  0  0  0  0  0  0  0  0  0
  158.5553   47.1760  151.7535 O   0  0  0  0  0  0  0  0  0  0  0  0
  160.3395   47.4007  149.9157 O   0  0  0  0  0  0  0  0  0  0  0  0
  158.2299   46.0986  149.4347 O   0  0  0  0  0  0  0  0  0  0  0  0
  156.8280   46.0858  149.6708 C   0  0  0  0  0  0  0  0  0  0  0  0
  156.1296   45.2516  148.6096 C   0  0  1  0  0  0  0  0  0  0  0  0
  155.5205   46.1394  147.6830 O   0  0  0  0  0  0  0  0  0  0  0  0
  157.0312   44.3353  147.7920 C   0  0  1  0  0  0  0  0  0  0  0  0
  156.8819   42.9955  148.2383 O   0  0  0  0  0  0  0  0  0  0  0  0
  156.4584   44.4318  146.3958 C   0  0  1  0  0  0  0  0  0  0  0  0
  155.4592   43.4261  146.2166 O   0  0  0  0  0  0  0  0  0  0  0  0
  155.7570   45.7577  146.3365 C   0  0  2  0  0  0  0  0  0  0  0  0
  156.6562   46.7566  145.7115 N   0  0  0  0  0  0  0  0  0  0  0  0
  156.5556   48.0909  145.8416 C   0  0  0  0  0  0  0  0  0  0  0  0
  157.5249   48.7142  145.1294 N   0  0  0  0  0  0  0  0  0  0  0  0
  158.2692   47.7712  144.5248 C   0  0  0  0  0  0  0  0  0  0  0  0
  159.4494   47.7487  143.6288 C   0  0  0  0  0  0  0  0  0  0  0  0
  159.9839   48.8220  143.2596 O   0  0  0  0  0  0  0  0  0  0  0  0
  159.9141   46.5514  143.2324 N   0  0  0  0  0  0  0  0  0  0  0  0
  159.3358   45.4024  143.6302 C   0  0  0  0  0  0  0  0  0  0  0  0
  159.8491   44.2268  143.2038 N   0  0  0  0  0  0  0  0  0  0  0  0
  158.2581   45.3516  144.4455 N   0  0  0  0  0  0  0  0  0  0  0  0
  157.6900   46.4824  144.9162 C   0  0  0  0  0  0  0  0  0  0  0  0
  157.8751   41.7910  147.7924 P   0  0  2  0  0  0  0  0  0  0  0  0
  158.0340   41.8097  146.2915 O   0  0  0  0  0  0  0  0  0  0  0  0
  157.3772   40.5495  148.5084 O   0  0  0  0  0  0  0  0  0  0  0  0
  159.2848   42.2493  148.4342 O   0  0  0  0  0  0  0  0  0  0  0  0
  159.5465   42.0272  149.8193 C   0  0  0  0  0  0  0  0  0  0  0  0
  160.6788   42.9018  150.3667 C   0  0  1  0  0  0  0  0  0  0  0  0
  161.9306   42.4144  149.8786 O   0  0  0  0  0  0  0  0  0  0  0  0
  160.5994   44.3778  149.9835 C   0  0  1  0  0  0  0  0  0  0  0  0
  159.9521   45.1626  150.9841 O   0  0  0  0  0  0  0  0  0  0  0  0
  162.0625   44.7532  149.8402 C   0  0  1  0  0  0  0  0  0  0  0  0
  162.6127   45.1462  151.1006 O   0  0  0  0  0  0  0  0  0  0  0  0
  162.7642   43.4801  149.4154 C   0  0  2  0  0  0  0  0  0  0  0  0
  162.8337   43.4227  147.9342 N   0  0  0  0  0  0  0  0  0  0  0  0
  162.7852   42.3015  147.1878 C   0  0  0  0  0  0  0  0  0  0  0  0
  162.8593   42.5752  145.8555 N   0  0  0  0  0  0  0  0  0  0  0  0
  162.9514   43.9087  145.7303 C   0  0  0  0  0  0  0  0  0  0  0  0
  163.0747   44.8727  144.6073 C   0  0  0  0  0  0  0  0  0  0  0  0
  163.0913   44.5089  143.4117 O   0  0  0  0  0  0  0  0  0  0  0  0
  163.1441   46.1692  144.9140 N   0  0  0  0  0  0  0  0  0  0  0  0
  163.1240   46.6107  146.1811 C   0  0  0  0  0  0  0  0  0  0  0  0
  163.2139   47.9349  146.3753 N   0  0  0  0  0  0  0  0  0  0  0  0
  163.0229   45.7955  147.2570 N   0  0  0  0  0  0  0  0  0  0  0  0
  162.9359   44.4579  147.1009 C   0  0  0  0  0  0  0  0  0  0  0  0
  1  3  2  6  0  0  0
  1 32  1  0  0  0  0
  1  2  1  0  0  0  0
  1  4  1  0  0  0  0
  4  5  1  0  0  0  0
  6  5  1  1  0  0  0
  7  6  1  0  0  0  0
  8  6  1  0  0  0  0
  8 10  1  0  0  0  0
  8  9  1  1  0  0  0
 10 11  1  1  0  0  0
 12 13  1  1  0  0  0
 12  7  1  0  0  0  0
 12 10  1  0  0  0  0
 14 13  1  0  0  0  0
 15 16  1  0  0  0  0
 15 14  2  0  0  0  0
 16 23  2  0  0  0  0
 17 16  1  0  0  0  0
 17 19  1  0  0  0  0
 18 17  2  0  0  0  0
 19 20  2  0  0  0  0
 20 22  1  0  0  0  0
 20 21  1  0  0  0  0
 23 13  1  0  0  0  0
 23 22  1  0  0  0  0
 24 25  2  6  0  0  0
 24  9  1  0  0  0  0
 24 26  1  0  0  0  0
 27 28  1  0  0  0  0
 27 24  1  0  0  0  0
 29 30  1  6  0  0  0
 29 28  1  0  0  0  0
 31 32  1  1  0  0  0
 31 29  1  0  0  0  0
 33 34  1  1  0  0  0
 33 35  1  0  0  0  0
 33 31  1  0  0  0  0
 35 36  1  6  0  0  0
 35 30  1  0  0  0  0
 36 37  1  0  0  0  0
 38 37  2  0  0  0  0
 39 38  1  0  0  0  0
 40 41  2  0  0  0  0
 40 39  1  0  0  0  0
 42 40  1  0  0  0  0
 43 42  2  0  0  0  0
 43 45  1  0  0  0  0
 44 43  1  0  0  0  0
 45 46  1  0  0  0  0
 46 39  2  0  0  0  0
 46 36  1  0  0  0  0
M  END
>  <CHROM.1>
-43.60857501,-32.42807763,159.59027594,44.94251177,147.33433061,1.42083332
-0.11850882,2.05067424

>  <Name>
lig.pdb

>  <RI>
0

>  <Rbt.Current_Directory>
/home/itssahil/PROJECTS/Mol_Feturizer/New_Systems/rnas/4yb0

>  <Rbt.Executable>
rbdock ($Id: //depot/dev/client3/rdock/2013.1/src/exe/rbdock.cxx#4 $)

>  <Rbt.Library>
libRbt.so (2013.1, Build901 2013/11/27)

>  <Rbt.Parameter_File>
/export/apps/rDock/src/rDock_2013.1_src/data/scripts/dock_solv.prm

>  <Rbt.Receptor>
prm/pocket_docking_6.prm

>  <SCORE>
-14.9248

>  <SCORE.INTER>
-15.5875

>  <SCORE.INTER.CONST>
1

>  <SCORE.INTER.POLAR>
0

>  <SCORE.INTER.ROT>
2

>  <SCORE.INTER.SOLV>
15.3763

>  <SCORE.INTER.VDW>
-20.4505

>  <SCORE.INTER.norm>
-0.338859

>  <SCORE.INTRA>
0.650015

>  <SCORE.INTRA.DIHEDRAL>
0.0342925

>  <SCORE.INTRA.DIHEDRAL.0>
4.74153

>  <SCORE.INTRA.POLAR>
0

>  <SCORE.INTRA.POLAR.0>
0

>  <SCORE.INTRA.REPUL>
0.0157668

>  <SCORE.INTRA.REPUL.0>
0

>  <SCORE.INTRA.SOLV>
1.57338

>  <SCORE.INTRA.SOLV.lig_0>
-60.4375

>  <SCORE.INTRA.VDW>
-0.232658

>  <SCORE.INTRA.VDW.0>
-1.83689

>  <SCORE.INTRA.norm>
0.0141308

>  <SCORE.RESTR>
0.012701

>  <SCORE.RESTR.CAVITY>
0.012701

>  <SCORE.RESTR.norm>
0.000276108

>  <SCORE.SYSTEM>
0

>  <SCORE.SYSTEM.CONST>
0

>  <SCORE.SYSTEM.DIHEDRAL>
0

>  <SCORE.SYSTEM.SOLV>
0

>  <SCORE.SYSTEM.norm>
0

>  <SCORE.heavy>
46

>  <SCORE.norm>
-0.324452

>  <RMSD>
6.497

$$$$
lig.pdb
 OpenBabel11021811523D
libRbt.so/2013.1/901 2013/11/27
 46 52  0  0  0  0  0  0  0  0999 V2000
  156.2383   44.6446  146.2685 P   0  0  2  0  0  0  0  0  0  0  0  0
  154.9205   43.9079  146.1672 O   0  0  0  0  0  0  0  0  0  0  0  0
  156.6833   45.4080  145.0478 O   0  0  0  0  0  0  0  0  0  0  0  0
  157.4282   43.6563  146.7072 O   0  0  0  0  0  0  0  0  0  0  0  0
  157.1697   42.3289  147.1458 C   0  0  0  0  0  0  0  0  0  0  0  0
  158.3906   41.7693  147.8569 C   0  0  1  0  0  0  0  0  0  0  0  0
  159.0472   40.8775  146.9672 O   0  0  0  0  0  0  0  0  0  0  0  0
  159.4350   42.7945  148.2801 C   0  0  1  0  0  0  0  0  0  0  0  0
  159.3394   43.0250  149.6780 O   0  0  0  0  0  0  0  0  0  0  0  0
  160.7472   42.0935  148.0084 C   0  0  1  0  0  0  0  0  0  0  0  0
  161.1516   41.3653  149.1695 O   0  0  0  0  0  0  0  0  0  0  0  0
  160.4517   41.0807  146.9404 C   0  0  2  0  0  0  0  0  0  0  0  0
  160.8244   41.6424  145.6204 N   0  0  0  0  0  0  0  0  0  0  0  0
  161.8135   42.5247  145.3955 C   0  0  0  0  0  0  0  0  0  0  0  0
  161.8779   42.8444  144.0806 N   0  0  0  0  0  0  0  0  0  0  0  0
  160.9151   42.1600  143.4378 C   0  0  0  0  0  0  0  0  0  0  0  0
  160.4391   42.0365  142.0399 C   0  0  0  0  0  0  0  0  0  0  0  0
  160.9899   42.6933  141.1238 O   0  0  0  0  0  0  0  0  0  0  0  0
  159.4088   41.2079  141.7982 N   0  0  0  0  0  0  0  0  0  0  0  0
  158.8201   40.5064  142.7852 C   0  0  0  0  0  0  0  0  0  0  0  0
  157.7905   39.6843  142.4829 N   0  0  0  0  0  0  0  0  0  0  0  0
  159.2039   40.5725  144.0803 N   0  0  0  0  0  0  0  0  0  0  0  0
  160.2262   41.3678  144.4614 C   0  0  0  0  0  0  0  0  0  0  0  0
  160.0997   44.2436  150.4350 P   0  0  2  0  0  0  0  0  0  0  0  0
  161.5501   44.2583  150.0177 O   0  0  0  0  0  0  0  0  0  0  0  0
  159.7099   44.1376  151.8975 O   0  0  0  0  0  0  0  0  0  0  0  0
  159.3965   45.5457  149.7874 O   0  0  0  0  0  0  0  0  0  0  0  0
  158.1195   45.9771  150.2560 C   0  0  0  0  0  0  0  0  0  0  0  0
  157.3954   46.8993  149.2701 C   0  0  1  0  0  0  0  0  0  0  0  0
  158.0209   48.1844  149.2784 O   0  0  0  0  0  0  0  0  0  0  0  0
  157.3901   46.4198  147.8202 C   0  0  1  0  0  0  0  0  0  0  0  0
  156.2081   45.6890  147.4964 O   0  0  0  0  0  0  0  0  0  0  0  0
  157.4684   47.7240  147.0488 C   0  0  1  0  0  0  0  0  0  0  0  0
  156.1630   48.2687  146.8366 O   0  0  0  0  0  0  0  0  0  0  0  0
  158.2185   48.6806  147.9518 C   0  0  2  0  0  0  0  0  0  0  0  0
  159.6672   48.6297  147.6340 N   0  0  0  0  0  0  0  0  0  0  0  0
  160.6049   47.9705  148.3430 C   0  0  0  0  0  0  0  0  0  0  0  0
  161.8435   48.1022  147.7919 N   0  0  0  0  0  0  0  0  0  0  0  0
  161.7086   48.8605  146.6924 C   0  0  0  0  0  0  0  0  0  0  0  0
  162.6140   49.4010  145.6466 C   0  0  0  0  0  0  0  0  0  0  0  0
  163.8409   49.1628  145.6353 O   0  0  0  0  0  0  0  0  0  0  0  0
  162.0671   50.1443  144.6832 N   0  0  0  0  0  0  0  0  0  0  0  0
  160.7550   50.4235  144.6474 C   0  0  0  0  0  0  0  0  0  0  0  0
  160.3144   51.1925  143.6406 N   0  0  0  0  0  0  0  0  0  0  0  0
  159.8685   49.9760  145.5672 N   0  0  0  0  0  0  0  0  0  0  0  0
  160.2757   49.2045  146.5969 C   0  0  0  0  0  0  0  0  0  0  0  0
  1  3  2  6  0  0  0
  1 32  1  0  0  0  0
  1  2  1  0  0  0  0
  1  4  1  0  0  0  0
  4  5  1  0  0  0  0
  6  5  1  6  0  0  0
  7  6  1  0  0  0  0
  8  6  1  0  0  0  0
  8 10  1  0  0  0  0
  8  9  1  1  0  0  0
 10 11  1  1  0  0  0
 12 13  1  6  0  0  0
 12  7  1  0  0  0  0
 12 10  1  0  0  0  0
 14 13  1  0  0  0  0
 15 16  1  0  0  0  0
 15 14  2  0  0  0  0
 16 23  2  0  0  0  0
 17 16  1  0  0  0  0
 17 19  1  0  0  0  0
 18 17  2  0  0  0  0
 19 20  2  0  0  0  0
 20 22  1  0  0  0  0
 20 21  1  0  0  0  0
 23 13  1  0  0  0  0
 23 22  1  0  0  0  0
 24 25  2  6  0  0  0
 24  9  1  0  0  0  0
 24 26  1  0  0  0  0
 27 28  1  0  0  0  0
 27 24  1  0  0  0  0
 29 30  1  6  0  0  0
 29 28  1  0  0  0  0
 31 32  1  6  0  0  0
 31 29  1  0  0  0  0
 33 34  1  1  0  0  0
 33 35  1  0  0  0  0
 33 31  1  0  0  0  0
 35 36  1  6  0  0  0
 35 30  1  0  0  0  0
 36 37  1  0  0  0  0
 38 37  2  0  0  0  0
 39 38  1  0  0  0  0
 40 41  2  0  0  0  0
 40 39  1  0  0  0  0
 42 40  1  0  0  0  0
 43 42  2  0  0  0  0
 43 45  1  0  0  0  0
 44 43  1  0  0  0  0
 45 46  1  0  0  0  0
 46 39  2  0  0  0  0
 46 36  1  0  0  0  0
M  END
>  <CHROM.1>
146.05390875,13.06951660,159.37632858,44.93771446,146.69585108,1.81706108
-1.24545558,-2.61692521

>  <Name>
lig.pdb

>  <RI>
0

>  <Rbt.Current_Directory>
/home/itssahil/PROJECTS/Mol_Feturizer/New_Systems/rnas/4yb0

>  <Rbt.Executable>
rbdock ($Id: //depot/dev/client3/rdock/2013.1/src/exe/rbdock.cxx#4 $)

>  <Rbt.Library>
libRbt.so (2013.1, Build901 2013/11/27)

>  <Rbt.Parameter_File>
/export/apps/rDock/src/rDock_2013.1_src/data/scripts/dock_solv.prm

>  <Rbt.Receptor>
prm/pocket_docking_6.prm

>  <SCORE>
-17.7496

>  <SCORE.INTER>
-18.5284

>  <SCORE.INTER.CONST>
1

>  <SCORE.INTER.POLAR>
0

>  <SCORE.INTER.ROT>
2

>  <SCORE.INTER.SOLV>
17.4463

>  <SCORE.INTER.VDW>
-23.101

>  <SCORE.INTER.norm>
-0.402792

>  <SCORE.INTRA>
0.778835

>  <SCORE.INTRA.DIHEDRAL>
0.0502625

>  <SCORE.INTRA.DIHEDRAL.0>
4.74153

>  <SCORE.INTRA.POLAR>
0

>  <SCORE.INTRA.POLAR.0>
0

>  <SCORE.INTRA.REPUL>
0.0709526

>  <SCORE.INTRA.REPUL.0>
0

>  <SCORE.INTRA.SOLV>
0.261666

>  <SCORE.INTRA.SOLV.lig_0>
-60.4375

>  <SCORE.INTRA.VDW>
0.268108

>  <SCORE.INTRA.VDW.0>
-1.83689

>  <SCORE.INTRA.norm>
0.0169312

>  <SCORE.RESTR>
0

>  <SCORE.RESTR.CAVITY>
0

>  <SCORE.RESTR.norm>
0

>  <SCORE.SYSTEM>
0

>  <SCORE.SYSTEM.CONST>
0

>  <SCORE.SYSTEM.DIHEDRAL>
0

>  <SCORE.SYSTEM.SOLV>
0

>  <SCORE.SYSTEM.norm>
0

>  <SCORE.heavy>
46

>  <SCORE.norm>
-0.385861

>  <RMSD>
6.545

$$$$
lig.pdb
 OpenBabel11021811523D
libRbt.so/2013.1/901 2013/11/27
 46 52  0  0  0  0  0  0  0  0999 V2000
  155.7648   45.1130  145.7832 P   0  0  2  0  0  0  0  0  0  0  0  0
  154.3495   44.5876  145.6810 O   0  0  0  0  0  0  0  0  0  0  0  0
  156.3636   45.6950  144.5287 O   0  0  0  0  0  0  0  0  0  0  0  0
  156.7666   43.9884  146.3459 O   0  0  0  0  0  0  0  0  0  0  0  0
  156.2851   42.7585  146.8717 C   0  0  0  0  0  0  0  0  0  0  0  0
  157.3780   42.0729  147.6749 C   0  0  1  0  0  0  0  0  0  0  0  0
  157.9097   41.0195  146.8840 O   0  0  0  0  0  0  0  0  0  0  0  0
  158.5601   42.9516  148.0642 C   0  0  1  0  0  0  0  0  0  0  0  0
  158.4602   43.3072  149.4354 O   0  0  0  0  0  0  0  0  0  0  0  0
  159.7503   42.0328  147.9028 C   0  0  1  0  0  0  0  0  0  0  0  0
  159.9969   41.3467  149.1318 O   0  0  0  0  0  0  0  0  0  0  0  0
  159.3288   40.9959  146.9025 C   0  0  2  0  0  0  0  0  0  0  0  0
  159.8269   41.3826  145.5612 N   0  0  0  0  0  0  0  0  0  0  0  0
  159.3148   40.9734  144.3874 C   0  0  0  0  0  0  0  0  0  0  0  0
  160.0132   41.4995  143.3527 N   0  0  0  0  0  0  0  0  0  0  0  0
  160.9969   42.2638  143.8598 C   0  0  0  0  0  0  0  0  0  0  0  0
  162.0904   43.1032  143.3161 C   0  0  0  0  0  0  0  0  0  0  0  0
  162.2517   43.2067  142.0763 O   0  0  0  0  0  0  0  0  0  0  0  0
  162.8905   43.7361  144.1911 N   0  0  0  0  0  0  0  0  0  0  0  0
  162.7142   43.6205  145.5210 C   0  0  0  0  0  0  0  0  0  0  0  0
  163.5466   44.2840  146.3541 N   0  0  0  0  0  0  0  0  0  0  0  0
  161.7380   42.8720  146.0828 N   0  0  0  0  0  0  0  0  0  0  0  0
  160.8649   42.1825  145.3178 C   0  0  0  0  0  0  0  0  0  0  0  0
  159.3829   44.4481  150.1304 P   0  0  2  0  0  0  0  0  0  0  0  0
  160.8289   44.1999  149.7760 O   0  0  0  0  0  0  0  0  0  0  0  0
  158.9368   44.5240  151.5786 O   0  0  0  0  0  0  0  0  0  0  0  0
  158.9180   45.7878  149.3568 O   0  0  0  0  0  0  0  0  0  0  0  0
  157.7132   46.4517  149.7362 C   0  0  0  0  0  0  0  0  0  0  0  0
  157.1770   47.3933  148.6533 C   0  0  1  0  0  0  0  0  0  0  0  0
  158.0001   48.5601  148.5918 O   0  0  0  0  0  0  0  0  0  0  0  0
  157.1389   46.8045  147.2448 C   0  0  1  0  0  0  0  0  0  0  0  0
  155.8653   46.2454  146.9264 O   0  0  0  0  0  0  0  0  0  0  0  0
  157.4491   48.0130  146.3814 C   0  0  1  0  0  0  0  0  0  0  0  0
  156.2552   48.7377  146.0728 O   0  0  0  0  0  0  0  0  0  0  0  0
  158.3153   48.9095  147.2413 C   0  0  2  0  0  0  0  0  0  0  0  0
  159.7460   48.6052  146.9909 N   0  0  0  0  0  0  0  0  0  0  0  0
  160.7858   49.0642  147.7151 C   0  0  0  0  0  0  0  0  0  0  0  0
  161.9764   48.5983  147.2454 N   0  0  0  0  0  0  0  0  0  0  0  0
  161.7052   47.8104  146.1928 C   0  0  0  0  0  0  0  0  0  0  0  0
  162.4951   47.0101  145.2226 C   0  0  0  0  0  0  0  0  0  0  0  0
  163.7412   46.9311  145.2778 O   0  0  0  0  0  0  0  0  0  0  0  0
  161.8224   46.3422  144.2839 N   0  0  0  0  0  0  0  0  0  0  0  0
  160.4849   46.3895  144.1863 C   0  0  0  0  0  0  0  0  0  0  0  0
  159.9128   45.6900  143.1950 N   0  0  0  0  0  0  0  0  0  0  0  0
  159.6972   47.1019  145.0256 N   0  0  0  0  0  0  0  0  0  0  0  0
  160.2375   47.8219  146.0311 C   0  0  0  0  0  0  0  0  0  0  0  0
  1  3  2  6  0  0  0
  1 32  1  0  0  0  0
  1  2  1  0  0  0  0
  1  4  1  0  0  0  0
  4  5  1  0  0  0  0
  6  5  1  6  0  0  0
  7  6  1  0  0  0  0
  8  6  1  0  0  0  0
  8 10  1  0  0  0  0
  8  9  1  1  0  0  0
 10 11  1  1  0  0  0
 12 13  1  6  0  0  0
 12  7  1  0  0  0  0
 12 10  1  0  0  0  0
 14 13  1  0  0  0  0
 15 16  1  0  0  0  0
 15 14  2  0  0  0  0
 16 23  2  0  0  0  0
 17 16  1  0  0  0  0
 17 19  1  0  0  0  0
 18 17  2  0  0  0  0
 19 20  2  0  0  0  0
 20 22  1  0  0  0  0
 20 21  1  0  0  0  0
 23 13  1  0  0  0  0
 23 22  1  0  0  0  0
 24 25  2  6  0  0  0
 24  9  1  0  0  0  0
 24 26  1  0  0  0  0
 27 28  1  0  0  0  0
 27 24  1  0  0  0  0
 29 30  1  6  0  0  0
 29 28  1  0  0  0  0
 31 32  1  6  0  0  0
 31 29  1  0  0  0  0
 33 34  1  1  0  0  0
 33 35  1  0  0  0  0
 33 31  1  0  0  0  0
 35 36  1  6  0  0  0
 35 30  1  0  0  0  0
 36 37  1  0  0  0  0
 38 37  2  0  0  0  0
 39 38  1  0  0  0  0
 40 41  2  0  0  0  0
 40 39  1  0  0  0  0
 42 40  1  0  0  0  0
 43 42  2  0  0  0  0
 43 45  1  0  0  0  0
 44 43  1  0  0  0  0
 45 46  1  0  0  0  0
 46 39  2  0  0  0  0
 46 36  1  0  0  0  0
M  END
>  <CHROM.1>
-41.86297355,-54.93307345,159.30442343,44.91069498,146.61505745,2.43205521
0.61138601,0.09109425

>  <Name>
lig.pdb

>  <RI>
0

>  <Rbt.Current_Directory>
/home/itssahil/PROJECTS/Mol_Feturizer/New_Systems/rnas/4yb0

>  <Rbt.Executable>
rbdock ($Id: //depot/dev/client3/rdock/2013.1/src/exe/rbdock.cxx#4 $)

>  <Rbt.Library>
libRbt.so (2013.1, Build901 2013/11/27)

>  <Rbt.Parameter_File>
/export/apps/rDock/src/rDock_2013.1_src/data/scripts/dock_solv.prm

>  <Rbt.Receptor>
prm/pocket_docking_4.prm

>  <SCORE>
-9.53355

>  <SCORE.INTER>
-11.6448

>  <SCORE.INTER.CONST>
1

>  <SCORE.INTER.POLAR>
0

>  <SCORE.INTER.ROT>
2

>  <SCORE.INTER.SOLV>
14.5817

>  <SCORE.INTER.VDW>
-17.5571

>  <SCORE.INTER.norm>
-0.253148

>  <SCORE.INTRA>
0.777636

>  <SCORE.INTRA.DIHEDRAL>
0.0819595

>  <SCORE.INTRA.DIHEDRAL.0>
4.74153

>  <SCORE.INTRA.POLAR>
0

>  <SCORE.INTRA.POLAR.0>
0

>  <SCORE.INTRA.REPUL>
0

>  <SCORE.INTRA.REPUL.0>
0

>  <SCORE.INTRA.SOLV>
4.49232

>  <SCORE.INTRA.SOLV.lig_0>
-60.4375

>  <SCORE.INTRA.VDW>
-1.50951

>  <SCORE.INTRA.VDW.0>
-1.83689

>  <SCORE.INTRA.norm>
0.0169051

>  <SCORE.RESTR>
1.33363

>  <SCORE.RESTR.CAVITY>
1.33363

>  <SCORE.RESTR.norm>
0.028992

>  <SCORE.SYSTEM>
0

>  <SCORE.SYSTEM.CONST>
0

>  <SCORE.SYSTEM.DIHEDRAL>
0

>  <SCORE.SYSTEM.SOLV>
0

>  <SCORE.SYSTEM.norm>
0

>  <SCORE.heavy>
46

>  <SCORE.norm>
-0.207251

>  <RMSD>
6.628

$$$$
lig.pdb
 OpenBabel11021811523D
libRbt.so/2013.1/901 2013/11/27
 46 52  0  0  0  0  0  0  0  0999 V2000
  161.1015   49.0299  145.7158 P   0  0  2  0  0  0  0  0  0  0  0  0
  162.3105   49.9340  145.6133 O   0  0  0  0  0  0  0  0  0  0  0  0
  160.0923   49.3665  146.7832 O   0  0  0  0  0  0  0  0  0  0  0  0
  161.5351   47.4925  145.8981 O   0  0  0  0  0  0  0  0  0  0  0  0
  162.8866   47.0776  145.7480 C   0  0  0  0  0  0  0  0  0  0  0  0
  162.9516   45.5684  145.5807 C   0  0  1  0  0  0  0  0  0  0  0  0
  163.3779   45.0074  146.8142 O   0  0  0  0  0  0  0  0  0  0  0  0
  161.6342   44.8858  145.2351 C   0  0  1  0  0  0  0  0  0  0  0  0
  161.6211   44.5421  143.8573 O   0  0  0  0  0  0  0  0  0  0  0  0
  161.6796   43.6053  146.0382 C   0  0  1  0  0  0  0  0  0  0  0  0
  162.2912   42.5733  145.2616 O   0  0  0  0  0  0  0  0  0  0  0  0
  162.5980   43.8835  147.1926 C   0  0  2  0  0  0  0  0  0  0  0  0
  161.7900   44.2458  148.3811 N   0  0  0  0  0  0  0  0  0  0  0  0
  161.8221   45.4287  149.0193 C   0  0  0  0  0  0  0  0  0  0  0  0
  160.9727   45.4247  150.0747 N   0  0  0  0  0  0  0  0  0  0  0  0
  160.3775   44.2198  150.1259 C   0  0  0  0  0  0  0  0  0  0  0  0
  159.3742   43.5559  150.9912 C   0  0  0  0  0  0  0  0  0  0  0  0
  158.8776   44.1672  151.9677 O   0  0  0  0  0  0  0  0  0  0  0  0
  159.0260   42.2923  150.6934 N   0  0  0  0  0  0  0  0  0  0  0  0
  159.5631   41.6401  149.6450 C   0  0  0  0  0  0  0  0  0  0  0  0
  159.1716   40.3716  149.3900 N   0  0  0  0  0  0  0  0  0  0  0  0
  160.4822   42.1860  148.8167 N   0  0  0  0  0  0  0  0  0  0  0  0
  160.9213   43.4491  149.0033 C   0  0  0  0  0  0  0  0  0  0  0  0
  160.2867   44.0516  143.0732 P   0  0  2  0  0  0  0  0  0  0  0  0
  159.6139   42.9626  143.8729 O   0  0  0  0  0  0  0  0  0  0  0  0
  160.7078   43.8161  141.6347 O   0  0  0  0  0  0  0  0  0  0  0  0
  159.3419   45.3598  143.1462 O   0  0  0  0  0  0  0  0  0  0  0  0
  159.5458   46.4416  142.2381 C   0  0  0  0  0  0  0  0  0  0  0  0
  158.9143   47.7541  142.7124 C   0  0  1  0  0  0  0  0  0  0  0  0
  157.4948   47.6760  142.5653 O   0  0  0  0  0  0  0  0  0  0  0  0
  159.1883   48.1140  144.1710 C   0  0  1  0  0  0  0  0  0  0  0  0
  160.3101   48.9846  144.3119 O   0  0  0  0  0  0  0  0  0  0  0  0
  157.8974   48.7966  144.5829 C   0  0  1  0  0  0  0  0  0  0  0  0
  157.9364   50.1913  144.2681 O   0  0  0  0  0  0  0  0  0  0  0  0
  156.8189   48.1674  143.7258 C   0  0  2  0  0  0  0  0  0  0  0  0
  156.2168   47.0202  144.4493 N   0  0  0  0  0  0  0  0  0  0  0  0
  155.5234   46.0115  143.8852 C   0  0  0  0  0  0  0  0  0  0  0  0
  155.1091   45.1012  144.8098 N   0  0  0  0  0  0  0  0  0  0  0  0
  155.5494   45.5236  146.0056 C   0  0  0  0  0  0  0  0  0  0  0  0
  155.4579   45.0479  147.4096 C   0  0  0  0  0  0  0  0  0  0  0  0
  154.8713   43.9890  147.7205 O   0  0  0  0  0  0  0  0  0  0  0  0
  156.0533   45.7846  148.3490 N   0  0  0  0  0  0  0  0  0  0  0  0
  156.7007   46.9254  148.0657 C   0  0  0  0  0  0  0  0  0  0  0  0
  157.2510   47.5941  149.0900 N   0  0  0  0  0  0  0  0  0  0  0  0
  156.8197   47.4284  146.8146 N   0  0  0  0  0  0  0  0  0  0  0  0
  156.2746   46.7863  145.7601 C   0  0  0  0  0  0  0  0  0  0  0  0
  1  3  2  1  0  0  0
  1 32  1  0  0  0  0
  1  2  1  0  0  0  0
  1  4  1  0  0  0  0
  4  5  1  0  0  0  0
  6  5  1  1  0  0  0
  7  6  1  0  0  0  0
  8  6  1  0  0  0  0
  8 10  1  0  0  0  0
  8  9  1  6  0  0  0
 10 11  1  6  0  0  0
 12 13  1  1  0  0  0
 12  7  1  0  0  0  0
 12 10  1  0  0  0  0
 14 13  1  0  0  0  0
 15 16  1  0  0  0  0
 15 14  2  0  0  0  0
 16 23  2  0  0  0  0
 17 16  1  0  0  0  0
 17 19  1  0  0  0  0
 18 17  2  0  0  0  0
 19 20  2  0  0  0  0
 20 22  1  0  0  0  0
 20 21  1  0  0  0  0
 23 13  1  0  0  0  0
 23 22  1  0  0  0  0
 24 25  2  1  0  0  0
 24  9  1  0  0  0  0
 24 26  1  0  0  0  0
 27 28  1  0  0  0  0
 27 24  1  0  0  0  0
 29 30  1  1  0  0  0
 29 28  1  0  0  0  0
 31 32  1  6  0  0  0
 31 29  1  0  0  0  0
 33 34  1  6  0  0  0
 33 35  1  0  0  0  0
 33 31  1  0  0  0  0
 35 36  1  1  0  0  0
 35 30  1  0  0  0  0
 36 37  1  0  0  0  0
 38 37  2  0  0  0  0
 39 38  1  0  0  0  0
 40 41  2  0  0  0  0
 40 39  1  0  0  0  0
 42 40  1  0  0  0  0
 43 42  2  0  0  0  0
 43 45  1  0  0  0  0
 44 43  1  0  0  0  0
 45 46  1  0  0  0  0
 46 39  2  0  0  0  0
 46 36  1  0  0  0  0
M  END
>  <CHROM.1>
-1.90533629,-45.25833075,159.47291529,45.72147352,146.14402444,-1.74381443
-0.25700878,2.20683438

>  <Name>
lig.pdb

>  <RI>
0

>  <Rbt.Current_Directory>
/home/itssahil/PROJECTS/Mol_Feturizer/New_Systems/rnas/4yb0

>  <Rbt.Executable>
rbdock ($Id: //depot/dev/client3/rdock/2013.1/src/exe/rbdock.cxx#4 $)

>  <Rbt.Library>
libRbt.so (2013.1, Build901 2013/11/27)

>  <Rbt.Parameter_File>
/export/apps/rDock/src/rDock_2013.1_src/data/scripts/dock_solv.prm

>  <Rbt.Receptor>
prm/pocket_docking_7.prm

>  <SCORE>
-14.6748

>  <SCORE.INTER>
-15.0172

>  <SCORE.INTER.CONST>
1

>  <SCORE.INTER.POLAR>
0

>  <SCORE.INTER.ROT>
2

>  <SCORE.INTER.SOLV>
12.2552

>  <SCORE.INTER.VDW>
-19.0299

>  <SCORE.INTER.norm>
-0.326461

>  <SCORE.INTRA>
0.342442

>  <SCORE.INTRA.DIHEDRAL>
0.0213401

>  <SCORE.INTRA.DIHEDRAL.0>
4.74153

>  <SCORE.INTRA.POLAR>
0

>  <SCORE.INTRA.POLAR.0>
0

>  <SCORE.INTRA.REPUL>
0

>  <SCORE.INTRA.REPUL.0>
0

>  <SCORE.INTRA.SOLV>
0.217696

>  <SCORE.INTRA.SOLV.lig_0>
-60.4375

>  <SCORE.INTRA.VDW>
0.222923

>  <SCORE.INTRA.VDW.0>
-1.83689

>  <SCORE.INTRA.norm>
0.00744438

>  <SCORE.RESTR>
0

>  <SCORE.RESTR.CAVITY>
0

>  <SCORE.RESTR.norm>
0

>  <SCORE.SYSTEM>
0

>  <SCORE.SYSTEM.CONST>
0

>  <SCORE.SYSTEM.DIHEDRAL>
0

>  <SCORE.SYSTEM.SOLV>
0

>  <SCORE.SYSTEM.norm>
0

>  <SCORE.heavy>
46

>  <SCORE.norm>
-0.319017

>  <RMSD>
6.685

$$$$
lig.pdb
 OpenBabel11021811523D
libRbt.so/2013.1/901 2013/11/27
 46 52  0  0  0  0  0  0  0  0999 V2000
  159.2039   47.7895  148.0798 P   0  0  2  0  0  0  0  0  0  0  0  0
  159.2231   49.1749  148.6880 O   0  0  0  0  0  0  0  0  0  0  0  0
  160.5412   47.1610  147.7836 O   0  0  0  0  0  0  0  0  0  0  0  0
  158.3205   47.7529  146.7369 O   0  0  0  0  0  0  0  0  0  0  0  0
  157.5081   48.8536  146.3502 C   0  0  0  0  0  0  0  0  0  0  0  0
  156.5058   48.4148  145.2954 C   0  0  1  0  0  0  0  0  0  0  0  0
  156.9653   48.8773  144.0333 O   0  0  0  0  0  0  0  0  0  0  0  0
  156.3138   46.9102  145.1536 C   0  0  1  0  0  0  0  0  0  0  0  0
  155.0918   46.5246  145.7656 O   0  0  0  0  0  0  0  0  0  0  0  0
  156.1746   46.7120  143.6609 C   0  0  1  0  0  0  0  0  0  0  0  0
  154.7981   46.8115  143.2900 O   0  0  0  0  0  0  0  0  0  0  0  0
  156.8806   47.8768  143.0300 C   0  0  2  0  0  0  0  0  0  0  0  0
  158.2540   47.4670  142.6522 N   0  0  0  0  0  0  0  0  0  0  0  0
  158.9600   46.4746  143.2215 C   0  0  0  0  0  0  0  0  0  0  0  0
  160.1846   46.3722  142.6515 N   0  0  0  0  0  0  0  0  0  0  0  0
  160.2790   47.3133  141.6953 C   0  0  0  0  0  0  0  0  0  0  0  0
  161.3030   47.7472  140.7159 C   0  0  0  0  0  0  0  0  0  0  0  0
  162.4168   47.1717  140.6684 O   0  0  0  0  0  0  0  0  0  0  0  0
  160.9957   48.7671  139.8963 N   0  0  0  0  0  0  0  0  0  0  0  0
  159.7994   49.3825  139.9524 C   0  0  0  0  0  0  0  0  0  0  0  0
  159.5436   50.3999  139.1000 N   0  0  0  0  0  0  0  0  0  0  0  0
  158.8218   49.0375  140.8208 N   0  0  0  0  0  0  0  0  0  0  0  0
  158.9997   48.0296  141.7014 C   0  0  0  0  0  0  0  0  0  0  0  0
  154.6860   44.9786  146.0505 P   0  0  2  0  0  0  0  0  0  0  0  0
  154.8998   44.1703  144.7939 O   0  0  0  0  0  0  0  0  0  0  0  0
  153.3304   45.0189  146.7307 O   0  0  0  0  0  0  0  0  0  0  0  0
  155.8067   44.5179  147.1188 O   0  0  0  0  0  0  0  0  0  0  0  0
  155.6689   44.8663  148.4958 C   0  0  0  0  0  0  0  0  0  0  0  0
  156.9848   44.7764  149.2750 C   0  0  1  0  0  0  0  0  0  0  0  0
  157.3188   43.4022  149.4816 O   0  0  0  0  0  0  0  0  0  0  0  0
  158.1866   45.4256  148.5923 C   0  0  1  0  0  0  0  0  0  0  0  0
  158.3992   46.7666  149.0312 O   0  0  0  0  0  0  0  0  0  0  0  0
  159.3259   44.5148  149.0101 C   0  0  1  0  0  0  0  0  0  0  0  0
  159.8665   44.9216  150.2703 O   0  0  0  0  0  0  0  0  0  0  0  0
  158.6988   43.1500  149.2041 C   0  0  2  0  0  0  0  0  0  0  0  0
  158.7982   42.3748  147.9426 N   0  0  0  0  0  0  0  0  0  0  0  0
  157.8208   41.6176  147.4061 C   0  0  0  0  0  0  0  0  0  0  0  0
  158.2109   41.0399  146.2359 N   0  0  0  0  0  0  0  0  0  0  0  0
  159.4718   41.4360  146.0003 C   0  0  0  0  0  0  0  0  0  0  0  0
  160.4925   41.1914  144.9496 C   0  0  0  0  0  0  0  0  0  0  0  0
  160.2678   40.4711  143.9532 O   0  0  0  0  0  0  0  0  0  0  0  0
  161.6745   41.7943  145.0876 N   0  0  0  0  0  0  0  0  0  0  0  0
  161.9624   42.5818  146.1354 C   0  0  0  0  0  0  0  0  0  0  0  0
  163.1874   43.1264  146.1805 N   0  0  0  0  0  0  0  0  0  0  0  0
  161.0901   42.8457  147.1362 N   0  0  0  0  0  0  0  0  0  0  0  0
  159.8509   42.3113  147.1276 C   0  0  0  0  0  0  0  0  0  0  0  0
  1  3  2  6  0  0  0
  1 32  1  0  0  0  0
  1  2  1  0  0  0  0
  1  4  1  0  0  0  0
  4  5  1  0  0  0  0
  6  5  1  1  0  0  0
  7  6  1  0  0  0  0
  8  6  1  0  0  0  0
  8 10  1  0  0  0  0
  8  9  1  1  0  0  0
 10 11  1  1  0  0  0
 12 13  1  1  0  0  0
 12  7  1  0  0  0  0
 12 10  1  0  0  0  0
 14 13  1  0  0  0  0
 15 16  1  0  0  0  0
 15 14  2  0  0  0  0
 16 23  2  0  0  0  0
 17 16  1  0  0  0  0
 17 19  1  0  0  0  0
 18 17  2  0  0  0  0
 19 20  2  0  0  0  0
 20 22  1  0  0  0  0
 20 21  1  0  0  0  0
 23 13  1  0  0  0  0
 23 22  1  0  0  0  0
 24 25  2  6  0  0  0
 24  9  1  0  0  0  0
 24 26  1  0  0  0  0
 27 28  1  0  0  0  0
 27 24  1  0  0  0  0
 29 30  1  6  0  0  0
 29 28  1  0  0  0  0
 31 32  1  1  0  0  0
 31 29  1  0  0  0  0
 33 34  1  1  0  0  0
 33 35  1  0  0  0  0
 33 31  1  0  0  0  0
 35 36  1  6  0  0  0
 35 30  1  0  0  0  0
 36 37  1  0  0  0  0
 38 37  2  0  0  0  0
 39 38  1  0  0  0  0
 40 41  2  0  0  0  0
 40 39  1  0  0  0  0
 42 40  1  0  0  0  0
 43 42  2  0  0  0  0
 43 45  1  0  0  0  0
 44 43  1  0  0  0  0
 45 46  1  0  0  0  0
 46 39  2  0  0  0  0
 46 36  1  0  0  0  0
M  END
>  <CHROM.1>
90.24566998,-22.37496676,158.40254442,45.68105068,145.52429848,1.72059556
-0.60208394,2.29015968

>  <Name>
lig.pdb

>  <RI>
0

>  <Rbt.Current_Directory>
/home/itssahil/PROJECTS/Mol_Feturizer/New_Systems/rnas/4yb0

>  <Rbt.Executable>
rbdock ($Id: //depot/dev/client3/rdock/2013.1/src/exe/rbdock.cxx#4 $)

>  <Rbt.Library>
libRbt.so (2013.1, Build901 2013/11/27)

>  <Rbt.Parameter_File>
/export/apps/rDock/src/rDock_2013.1_src/data/scripts/dock_solv.prm

>  <Rbt.Receptor>
prm/pocket_docking_8.prm

>  <SCORE>
-24.0059

>  <SCORE.INTER>
-24.7056

>  <SCORE.INTER.CONST>
1

>  <SCORE.INTER.POLAR>
0

>  <SCORE.INTER.ROT>
2

>  <SCORE.INTER.SOLV>
21.7634

>  <SCORE.INTER.VDW>
-28.6582

>  <SCORE.INTER.norm>
-0.537078

>  <SCORE.INTRA>
0.699735

>  <SCORE.INTRA.DIHEDRAL>
0.0482789

>  <SCORE.INTRA.DIHEDRAL.0>
4.74153

>  <SCORE.INTRA.POLAR>
0

>  <SCORE.INTRA.POLAR.0>
0

>  <SCORE.INTRA.REPUL>
0.00256322

>  <SCORE.INTRA.REPUL.0>
0

>  <SCORE.INTRA.SOLV>
-0.0958456

>  <SCORE.INTRA.SOLV.lig_0>
-60.4375

>  <SCORE.INTRA.VDW>
0.710702

>  <SCORE.INTRA.VDW.0>
-1.83689

>  <SCORE.INTRA.norm>
0.0152116

>  <SCORE.RESTR>
0

>  <SCORE.RESTR.CAVITY>
0

>  <SCORE.RESTR.norm>
0

>  <SCORE.SYSTEM>
0

>  <SCORE.SYSTEM.CONST>
0

>  <SCORE.SYSTEM.DIHEDRAL>
0

>  <SCORE.SYSTEM.SOLV>
0

>  <SCORE.SYSTEM.norm>
0

>  <SCORE.heavy>
46

>  <SCORE.norm>
-0.521867

>  <RMSD>
6.696

$$$$
lig.pdb
 OpenBabel11021811523D
libRbt.so/2013.1/901 2013/11/27
 46 52  0  0  0  0  0  0  0  0999 V2000
  155.2695   45.7763  145.4777 P   0  0  2  0  0  0  0  0  0  0  0  0
  153.8193   45.5540  145.8480 O   0  0  0  0  0  0  0  0  0  0  0  0
  155.7128   45.2580  144.1339 O   0  0  0  0  0  0  0  0  0  0  0  0
  156.2567   45.1814  146.5987 O   0  0  0  0  0  0  0  0  0  0  0  0
  155.7685   44.7226  147.8527 C   0  0  0  0  0  0  0  0  0  0  0  0
  156.9156   44.5922  148.8410 C   0  0  1  0  0  0  0  0  0  0  0  0
  157.2387   43.2140  148.9600 O   0  0  0  0  0  0  0  0  0  0  0  0
  158.2067   45.3001  148.4500 C   0  0  1  0  0  0  0  0  0  0  0  0
  158.3443   46.4948  149.2052 O   0  0  0  0  0  0  0  0  0  0  0  0
  159.2849   44.3371  148.8939 C   0  0  1  0  0  0  0  0  0  0  0  0
  159.6629   44.6279  150.2410 O   0  0  0  0  0  0  0  0  0  0  0  0
  158.6381   42.9825  148.9061 C   0  0  2  0  0  0  0  0  0  0  0  0
  158.9540   42.2809  147.6393 N   0  0  0  0  0  0  0  0  0  0  0  0
  158.0948   41.5383  146.9198 C   0  0  0  0  0  0  0  0  0  0  0  0
  158.7074   41.0255  145.8258 N   0  0  0  0  0  0  0  0  0  0  0  0
  159.9869   41.4400  145.8322 C   0  0  0  0  0  0  0  0  0  0  0  0
  161.1755   41.2620  144.9652 C   0  0  0  0  0  0  0  0  0  0  0  0
  161.1024   40.5601  143.9279 O   0  0  0  0  0  0  0  0  0  0  0  0
  162.3165   41.8708  145.3312 N   0  0  0  0  0  0  0  0  0  0  0  0
  162.3901   42.6218  146.4463 C   0  0  0  0  0  0  0  0  0  0  0  0
  163.5629   43.2148  146.7627 N   0  0  0  0  0  0  0  0  0  0  0  0
  161.3452   42.8249  147.2805 N   0  0  0  0  0  0  0  0  0  0  0  0
  160.1400   42.2696  147.0313 C   0  0  0  0  0  0  0  0  0  0  0  0
  159.4463   47.6393  148.8710 P   0  0  2  0  0  0  0  0  0  0  0  0
  160.7983   46.9905  148.6994 O   0  0  0  0  0  0  0  0  0  0  0  0
  159.2332   48.7390  149.8943 O   0  0  0  0  0  0  0  0  0  0  0  0
  158.9725   48.1621  147.4178 O   0  0  0  0  0  0  0  0  0  0  0  0
  157.8937   49.0897  147.3077 C   0  0  0  0  0  0  0  0  0  0  0  0
  157.2721   49.1283  145.9081 C   0  0  1  0  0  0  0  0  0  0  0  0
  158.1628   49.7988  145.0138 O   0  0  0  0  0  0  0  0  0  0  0  0
  156.9751   47.7619  145.2942 C   0  0  1  0  0  0  0  0  0  0  0  0
  155.6290   47.3472  145.5225 O   0  0  0  0  0  0  0  0  0  0  0  0
  157.2413   48.0055  143.8205 C   0  0  1  0  0  0  0  0  0  0  0  0
  156.0731   48.5129  143.1696 O   0  0  0  0  0  0  0  0  0  0  0  0
  158.2942   49.0932  143.7768 C   0  0  2  0  0  0  0  0  0  0  0  0
  159.6426   48.4762  143.7201 N   0  0  0  0  0  0  0  0  0  0  0  0
  160.7908   49.0578  144.1199 C   0  0  0  0  0  0  0  0  0  0  0  0
  161.8621   48.2332  143.9538 N   0  0  0  0  0  0  0  0  0  0  0  0
  161.3995   47.0828  143.4392 C   0  0  0  0  0  0  0  0  0  0  0  0
  161.9885   45.7897  143.0069 C   0  0  0  0  0  0  0  0  0  0  0  0
  163.2110   45.5467  143.1001 O   0  0  0  0  0  0  0  0  0  0  0  0
  161.1560   44.8636  142.5285 N   0  0  0  0  0  0  0  0  0  0  0  0
  159.8355   45.0735  142.4142 C   0  0  0  0  0  0  0  0  0  0  0  0
  159.0935   44.0779  141.9067 N   0  0  0  0  0  0  0  0  0  0  0  0
  159.2259   46.2261  142.7776 N   0  0  0  0  0  0  0  0  0  0  0  0
  159.9405   47.2514  143.2869 C   0  0  0  0  0  0  0  0  0  0  0  0
  1  3  2  6  0  0  0
  1 32  1  0  0  0  0
  1  2  1  0  0  0  0
  1  4  1  0  0  0  0
  4  5  1  0  0  0  0
  6  5  1  6  0  0  0
  7  6  1  0  0  0  0
  8  6  1  0  0  0  0
  8 10  1  0  0  0  0
  8  9  1  1  0  0  0
 10 11  1  1  0  0  0
 12 13  1  6  0  0  0
 12  7  1  0  0  0  0
 12 10  1  0  0  0  0
 14 13  1  0  0  0  0
 15 16  1  0  0  0  0
 15 14  2  0  0  0  0
 16 23  2  0  0  0  0
 17 16  1  0  0  0  0
 17 19  1  0  0  0  0
 18 17  2  0  0  0  0
 19 20  2  0  0  0  0
 20 22  1  0  0  0  0
 20 21  1  0  0  0  0
 23 13  1  0  0  0  0
 23 22  1  0  0  0  0
 24 25  2  6  0  0  0
 24  9  1  0  0  0  0
 24 26  1  0  0  0  0
 27 28  1  0  0  0  0
 27 24  1  0  0  0  0
 29 30  1  6  0  0  0
 29 28  1  0  0  0  0
 31 32  1  6  0  0  0
 31 29  1  0  0  0  0
 33 34  1  6  0  0  0
 33 35  1  0  0  0  0
 33 31  1  0  0  0  0
 35 36  1  1  0  0  0
 35 30  1  0  0  0  0
 36 37  1  0  0  0  0
 38 37  2  0  0  0  0
 39 38  1  0  0  0  0
 40 41  2  0  0  0  0
 40 39  1  0  0  0  0
 42 40  1  0  0  0  0
 43 42  2  0  0  0  0
 43 45  1  0  0  0  0
 44 43  1  0  0  0  0
 45 46  1  0  0  0  0
 46 39  2  0  0  0  0
 46 36  1  0  0  0  0
M  END
>  <CHROM.1>
-23.52784798,-41.17474360,158.91430112,45.56636929,145.99118826,2.39379073
0.78572249,-0.73774934

>  <Name>
lig.pdb

>  <RI>
0

>  <Rbt.Current_Directory>
/home/itssahil/PROJECTS/Mol_Feturizer/New_Systems/rnas/4yb0

>  <Rbt.Executable>
rbdock ($Id: //depot/dev/client3/rdock/2013.1/src/exe/rbdock.cxx#4 $)

>  <Rbt.Library>
libRbt.so (2013.1, Build901 2013/11/27)

>  <Rbt.Parameter_File>
/export/apps/rDock/src/rDock_2013.1_src/data/scripts/dock_solv.prm

>  <Rbt.Receptor>
prm/pocket_docking_4.prm

>  <SCORE>
-14.0869

>  <SCORE.INTER>
-15.5039

>  <SCORE.INTER.CONST>
1

>  <SCORE.INTER.POLAR>
0

>  <SCORE.INTER.ROT>
2

>  <SCORE.INTER.SOLV>
20.5935

>  <SCORE.INTER.VDW>
-22.1338

>  <SCORE.INTER.norm>
-0.337041

>  <SCORE.INTRA>
0.294389

>  <SCORE.INTRA.DIHEDRAL>
0.0521173

>  <SCORE.INTRA.DIHEDRAL.0>
4.74153

>  <SCORE.INTRA.POLAR>
0

>  <SCORE.INTRA.POLAR.0>
0

>  <SCORE.INTRA.REPUL>
0.00147273

>  <SCORE.INTRA.REPUL.0>
0

>  <SCORE.INTRA.SOLV>
0.278687

>  <SCORE.INTRA.SOLV.lig_0>
-60.4375

>  <SCORE.INTRA.VDW>
0.121623

>  <SCORE.INTRA.VDW.0>
-1.83689

>  <SCORE.INTRA.norm>
0.00639975

>  <SCORE.RESTR>
1.12265

>  <SCORE.RESTR.CAVITY>
1.12265

>  <SCORE.RESTR.norm>
0.0244054

>  <SCORE.SYSTEM>
0

>  <SCORE.SYSTEM.CONST>
0

>  <SCORE.SYSTEM.DIHEDRAL>
0

>  <SCORE.SYSTEM.SOLV>
0

>  <SCORE.SYSTEM.norm>
0

>  <SCORE.heavy>
46

>  <SCORE.norm>
-0.306236

>  <RMSD>
6.703

$$$$
lig.pdb
 OpenBabel11021811523D
libRbt.so/2013.1/901 2013/11/27
 46 52  0  0  0  0  0  0  0  0999 V2000
  159.3680   47.7190  148.0930 P   0  0  2  0  0  0  0  0  0  0  0  0
  159.4243   49.0929  148.7244 O   0  0  0  0  0  0  0  0  0  0  0  0
  160.6868   47.0810  147.7400 O   0  0  0  0  0  0  0  0  0  0  0  0
  158.4388   47.7164  146.7809 O   0  0  0  0  0  0  0  0  0  0  0  0
  157.6267   48.8329  146.4418 C   0  0  0  0  0  0  0  0  0  0  0  0
  156.5838   48.4244  145.4145 C   0  0  1  0  0  0  0  0  0  0  0  0
  157.0053   48.9043  144.1456 O   0  0  0  0  0  0  0  0  0  0  0  0
  156.3693   46.9249  145.2530 C   0  0  1  0  0  0  0  0  0  0  0  0
  155.1645   46.5420  145.8998 O   0  0  0  0  0  0  0  0  0  0  0  0
  156.1767   46.7550  143.7627 C   0  0  1  0  0  0  0  0  0  0  0  0
  154.7897   46.8766  143.4412 O   0  0  0  0  0  0  0  0  0  0  0  0
  156.8745   47.9230  143.1284 C   0  0  2  0  0  0  0  0  0  0  0  0
  158.2292   47.5047  142.6965 N   0  0  0  0  0  0  0  0  0  0  0  0
  158.6935   46.2431  142.6863 C   0  0  0  0  0  0  0  0  0  0  0  0
  159.9755   46.2098  142.2497 N   0  0  0  0  0  0  0  0  0  0  0  0
  160.3535   47.4701  141.9710 C   0  0  0  0  0  0  0  0  0  0  0  0
  161.5788   48.1353  141.4689 C   0  0  0  0  0  0  0  0  0  0  0  0
  162.6015   47.4594  141.2023 O   0  0  0  0  0  0  0  0  0  0  0  0
  161.5508   49.4704  141.3161 N   0  0  0  0  0  0  0  0  0  0  0  0
  160.4511   50.1915  141.6051 C   0  0  0  0  0  0  0  0  0  0  0  0
  160.4787   51.5312  141.4274 N   0  0  0  0  0  0  0  0  0  0  0  0
  159.3017   49.6485  142.0665 N   0  0  0  0  0  0  0  0  0  0  0  0
  159.1942   48.3176  142.2668 C   0  0  0  0  0  0  0  0  0  0  0  0
  154.7504   44.9958  146.1713 P   0  0  2  0  0  0  0  0  0  0  0  0
  154.9115   44.2079  144.8940 O   0  0  0  0  0  0  0  0  0  0  0  0
  153.4194   45.0391  146.8983 O   0  0  0  0  0  0  0  0  0  0  0  0
  155.9014   44.5034  147.1922 O   0  0  0  0  0  0  0  0  0  0  0  0
  155.8150   44.8286  148.5790 C   0  0  0  0  0  0  0  0  0  0  0  0
  157.1555   44.7100  149.3107 C   0  0  1  0  0  0  0  0  0  0  0  0
  157.4802   43.3286  149.4815 O   0  0  0  0  0  0  0  0  0  0  0  0
  158.3409   45.3578  148.5986 C   0  0  1  0  0  0  0  0  0  0  0  0
  158.5842   46.6882  149.0535 O   0  0  0  0  0  0  0  0  0  0  0  0
  159.4830   44.4269  148.9609 C   0  0  1  0  0  0  0  0  0  0  0  0
  160.0711   44.8049  150.2087 O   0  0  0  0  0  0  0  0  0  0  0  0
  158.8468   43.0660  149.1523 C   0  0  2  0  0  0  0  0  0  0  0  0
  158.8939   42.3124  147.8747 N   0  0  0  0  0  0  0  0  0  0  0  0
  157.8769   41.6083  147.3394 C   0  0  0  0  0  0  0  0  0  0  0  0
  158.2241   41.0380  146.1522 N   0  0  0  0  0  0  0  0  0  0  0  0
  159.4972   41.3847  145.9043 C   0  0  0  0  0  0  0  0  0  0  0  0
  160.4904   41.1179  144.8329 C   0  0  0  0  0  0  0  0  0  0  0  0
  160.2201   40.4278  143.8265 O   0  0  0  0  0  0  0  0  0  0  0  0
  161.6991   41.6671  144.9636 N   0  0  0  0  0  0  0  0  0  0  0  0
  162.0363   42.4206  146.0216 C   0  0  0  0  0  0  0  0  0  0  0  0
  163.2841   42.9117  146.0576 N   0  0  0  0  0  0  0  0  0  0  0  0
  161.1913   42.7014  147.0411 N   0  0  0  0  0  0  0  0  0  0  0  0
  159.9304   42.2205  147.0420 C   0  0  0  0  0  0  0  0  0  0  0  0
  1  3  2  6  0  0  0
  1 32  1  0  0  0  0
  1  2  1  0  0  0  0
  1  4  1  0  0  0  0
  4  5  1  0  0  0  0
  6  5  1  1  0  0  0
  7  6  1  0  0  0  0
  8  6  1  0  0  0  0
  8 10  1  0  0  0  0
  8  9  1  1  0  0  0
 10 11  1  1  0  0  0
 12 13  1  1  0  0  0
 12  7  1  0  0  0  0
 12 10  1  0  0  0  0
 14 13  1  0  0  0  0
 15 16  1  0  0  0  0
 15 14  2  0  0  0  0
 16 23  2  0  0  0  0
 17 16  1  0  0  0  0
 17 19  1  0  0  0  0
 18 17  2  0  0  0  0
 19 20  2  0  0  0  0
 20 22  1  0  0  0  0
 20 21  1  0  0  0  0
 23 13  1  0  0  0  0
 23 22  1  0  0  0  0
 24 25  2  6  0  0  0
 24  9  1  0  0  0  0
 24 26  1  0  0  0  0
 27 28  1  0  0  0  0
 27 24  1  0  0  0  0
 29 30  1  6  0  0  0
 29 28  1  0  0  0  0
 31 32  1  1  0  0  0
 31 29  1  0  0  0  0
 33 34  1  1  0  0  0
 33 35  1  0  0  0  0
 33 31  1  0  0  0  0
 35 36  1  6  0  0  0
 35 30  1  0  0  0  0
 36 37  1  0  0  0  0
 38 37  2  0  0  0  0
 39 38  1  0  0  0  0
 40 41  2  0  0  0  0
 40 39  1  0  0  0  0
 42 40  1  0  0  0  0
 43 42  2  0  0  0  0
 43 45  1  0  0  0  0
 44 43  1  0  0  0  0
 45 46  1  0  0  0  0
 46 39  2  0  0  0  0
 46 36  1  0  0  0  0
M  END
>  <CHROM.1>
124.48948136,-20.28710423,158.52989289,45.72625137,145.69157419,1.73790337
-0.53495627,2.47550289

>  <Name>
lig.pdb

>  <RI>
0

>  <Rbt.Current_Directory>
/home/itssahil/PROJECTS/Mol_Feturizer/New_Systems/rnas/4yb0

>  <Rbt.Executable>
rbdock ($Id: //depot/dev/client3/rdock/2013.1/src/exe/rbdock.cxx#4 $)

>  <Rbt.Library>
libRbt.so (2013.1, Build901 2013/11/27)

>  <Rbt.Parameter_File>
/export/apps/rDock/src/rDock_2013.1_src/data/scripts/dock_solv.prm

>  <Rbt.Receptor>
prm/pocket_docking_5.prm

>  <SCORE>
-19.372

>  <SCORE.INTER>
-20.473

>  <SCORE.INTER.CONST>
1

>  <SCORE.INTER.POLAR>
0

>  <SCORE.INTER.ROT>
2

>  <SCORE.INTER.SOLV>
20.0883

>  <SCORE.INTER.VDW>
-25.2781

>  <SCORE.INTER.norm>
-0.445066

>  <SCORE.INTRA>
1.09985

>  <SCORE.INTRA.DIHEDRAL>
-0.00629712

>  <SCORE.INTRA.DIHEDRAL.0>
4.74153

>  <SCORE.INTRA.POLAR>
0

>  <SCORE.INTRA.POLAR.0>
0

>  <SCORE.INTRA.REPUL>
0.0193349

>  <SCORE.INTRA.REPUL.0>
0

>  <SCORE.INTRA.SOLV>
0.00218535

>  <SCORE.INTRA.SOLV.lig_0>
-60.4375

>  <SCORE.INTRA.VDW>
1.00523

>  <SCORE.INTRA.VDW.0>
-1.83689

>  <SCORE.INTRA.norm>
0.0239097

>  <SCORE.RESTR>
0.0011735

>  <SCORE.RESTR.CAVITY>
0.0011735

>  <SCORE.RESTR.norm>
2.55108e-05

>  <SCORE.SYSTEM>
0

>  <SCORE.SYSTEM.CONST>
0

>  <SCORE.SYSTEM.DIHEDRAL>
0

>  <SCORE.SYSTEM.SOLV>
0

>  <SCORE.SYSTEM.norm>
0

>  <SCORE.heavy>
46

>  <SCORE.norm>
-0.421131

>  <RMSD>
6.703

$$$$
lig.pdb
 OpenBabel11021811523D
libRbt.so/2013.1/901 2013/11/27
 46 52  0  0  0  0  0  0  0  0999 V2000
  159.2850   47.7847  148.1709 P   0  0  2  0  0  0  0  0  0  0  0  0
  159.3095   49.1537  148.8150 O   0  0  0  0  0  0  0  0  0  0  0  0
  160.6200   47.1582  147.8602 O   0  0  0  0  0  0  0  0  0  0  0  0
  158.4035   47.7871  146.8263 O   0  0  0  0  0  0  0  0  0  0  0  0
  157.5965   48.9012  146.4674 C   0  0  0  0  0  0  0  0  0  0  0  0
  156.5939   48.4945  145.4001 C   0  0  1  0  0  0  0  0  0  0  0  0
  157.0572   48.9876  144.1511 O   0  0  0  0  0  0  0  0  0  0  0  0
  156.3953   46.9950  145.2189 C   0  0  1  0  0  0  0  0  0  0  0  0
  155.1707   46.5990  145.8190 O   0  0  0  0  0  0  0  0  0  0  0  0
  156.2574   46.8364  143.7213 C   0  0  1  0  0  0  0  0  0  0  0  0
  154.8819   46.9517  143.3513 O   0  0  0  0  0  0  0  0  0  0  0  0
  156.9695   48.0141  143.1219 C   0  0  2  0  0  0  0  0  0  0  0  0
  158.3416   47.6081  142.7354 N   0  0  0  0  0  0  0  0  0  0  0  0
  159.0753   46.6553  143.3365 C   0  0  0  0  0  0  0  0  0  0  0  0
  160.2897   46.5448  142.7464 N   0  0  0  0  0  0  0  0  0  0  0  0
  160.3492   47.4403  141.7448 C   0  0  0  0  0  0  0  0  0  0  0  0
  161.3459   47.8426  140.7246 C   0  0  0  0  0  0  0  0  0  0  0  0
  162.4679   47.2829  140.6812 O   0  0  0  0  0  0  0  0  0  0  0  0
  161.0053   48.8172  139.8640 N   0  0  0  0  0  0  0  0  0  0  0  0
  159.8003   49.4158  139.9158 C   0  0  0  0  0  0  0  0  0  0  0  0
  159.5105   50.3871  139.0214 N   0  0  0  0  0  0  0  0  0  0  0  0
  158.8463   49.0977  140.8199 N   0  0  0  0  0  0  0  0  0  0  0  0
  159.0586   48.1360  141.7435 C   0  0  0  0  0  0  0  0  0  0  0  0
  154.7576   45.0479  146.0630 P   0  0  2  0  0  0  0  0  0  0  0  0
  154.9696   44.2718  144.7859 O   0  0  0  0  0  0  0  0  0  0  0  0
  153.4012   45.0766  146.7421 O   0  0  0  0  0  0  0  0  0  0  0  0
  155.8747   44.5545  147.1204 O   0  0  0  0  0  0  0  0  0  0  0  0
  155.7365   44.8675  148.5058 C   0  0  0  0  0  0  0  0  0  0  0  0
  157.0508   44.7515  149.2841 C   0  0  1  0  0  0  0  0  0  0  0  0
  157.3784   43.3709  149.4552 O   0  0  0  0  0  0  0  0  0  0  0  0
  158.2565   45.4128  148.6202 C   0  0  1  0  0  0  0  0  0  0  0  0
  158.4744   46.7410  149.0942 O   0  0  0  0  0  0  0  0  0  0  0  0
  159.3911   44.4863  149.0156 C   0  0  1  0  0  0  0  0  0  0  0  0
  159.9317   44.8577  150.2868 O   0  0  0  0  0  0  0  0  0  0  0  0
  158.7577   43.1198  149.1731 C   0  0  2  0  0  0  0  0  0  0  0  0
  158.8555   42.3772  147.8920 N   0  0  0  0  0  0  0  0  0  0  0  0
  157.8649   41.6661  147.3179 C   0  0  0  0  0  0  0  0  0  0  0  0
  158.2576   41.1094  146.1385 N   0  0  0  0  0  0  0  0  0  0  0  0
  159.5340   41.4724  145.9354 C   0  0  0  0  0  0  0  0  0  0  0  0
  160.5650   41.2255  144.8954 C   0  0  0  0  0  0  0  0  0  0  0  0
  160.3360   40.5406  143.8753 O   0  0  0  0  0  0  0  0  0  0  0  0
  161.7624   41.7873  145.0701 N   0  0  0  0  0  0  0  0  0  0  0  0
  162.0558   42.5359  146.1445 C   0  0  0  0  0  0  0  0  0  0  0  0
  163.2959   43.0407  146.2255 N   0  0  0  0  0  0  0  0  0  0  0  0
  161.1745   42.7989  147.1377 N   0  0  0  0  0  0  0  0  0  0  0  0
  159.9198   42.3038  147.0932 C   0  0  0  0  0  0  0  0  0  0  0  0
  1  3  2  6  0  0  0
  1 32  1  0  0  0  0
  1  2  1  0  0  0  0
  1  4  1  0  0  0  0
  4  5  1  0  0  0  0
  6  5  1  1  0  0  0
  7  6  1  0  0  0  0
  8  6  1  0  0  0  0
  8 10  1  0  0  0  0
  8  9  1  1  0  0  0
 10 11  1  1  0  0  0
 12 13  1  1  0  0  0
 12  7  1  0  0  0  0
 12 10  1  0  0  0  0
 14 13  1  0  0  0  0
 15 16  1  0  0  0  0
 15 14  2  0  0  0  0
 16 23  2  0  0  0  0
 17 16  1  0  0  0  0
 17 19  1  0  0  0  0
 18 17  2  0  0  0  0
 19 20  2  0  0  0  0
 20 22  1  0  0  0  0
 20 21  1  0  0  0  0
 23 13  1  0  0  0  0
 23 22  1  0  0  0  0
 24 25  2  6  0  0  0
 24  9  1  0  0  0  0
 24 26  1  0  0  0  0
 27 28  1  0  0  0  0
 27 24  1  0  0  0  0
 29 30  1  6  0  0  0
 29 28  1  0  0  0  0
 31 32  1  1  0  0  0
 31 29  1  0  0  0  0
 33 34  1  1  0  0  0
 33 35  1  0  0  0  0
 33 31  1  0  0  0  0
 35 36  1  6  0  0  0
 35 30  1  0  0  0  0
 36 37  1  0  0  0  0
 38 37  2  0  0  0  0
 39 38  1  0  0  0  0
 40 41  2  0  0  0  0
 40 39  1  0  0  0  0
 42 40  1  0  0  0  0
 43 42  2  0  0  0  0
 43 45  1  0  0  0  0
 44 43  1  0  0  0  0
 45 46  1  0  0  0  0
 46 39  2  0  0  0  0
 46 36  1  0  0  0  0
M  END
>  <CHROM.1>
85.67555238,-20.60753667,158.47172315,45.72334190,145.54821354,1.70912156
-0.61750574,2.29295424

>  <Name>
lig.pdb

>  <RI>
0

>  <Rbt.Current_Directory>
/home/itssahil/PROJECTS/Mol_Feturizer/New_Systems/rnas/4yb0

>  <Rbt.Executable>
rbdock ($Id: //depot/dev/client3/rdock/2013.1/src/exe/rbdock.cxx#4 $)

>  <Rbt.Library>
libRbt.so (2013.1, Build901 2013/11/27)

>  <Rbt.Parameter_File>
/export/apps/rDock/src/rDock_2013.1_src/data/scripts/dock_solv.prm

>  <Rbt.Receptor>
prm/pocket_docking_7.prm

>  <SCORE>
-23.9135

>  <SCORE.INTER>
-24.4642

>  <SCORE.INTER.CONST>
1

>  <SCORE.INTER.POLAR>
0

>  <SCORE.INTER.ROT>
2

>  <SCORE.INTER.SOLV>
21.3389

>  <SCORE.INTER.VDW>
-28.3557

>  <SCORE.INTER.norm>
-0.53183

>  <SCORE.INTRA>
0.550672

>  <SCORE.INTRA.DIHEDRAL>
0.049592

>  <SCORE.INTRA.DIHEDRAL.0>
4.74153

>  <SCORE.INTRA.POLAR>
0

>  <SCORE.INTRA.POLAR.0>
0

>  <SCORE.INTRA.REPUL>
0

>  <SCORE.INTRA.REPUL.0>
0

>  <SCORE.INTRA.SOLV>
-0.0986015

>  <SCORE.INTRA.SOLV.lig_0>
-60.4375

>  <SCORE.INTRA.VDW>
0.575177

>  <SCORE.INTRA.VDW.0>
-1.83689

>  <SCORE.INTRA.norm>
0.0119711

>  <SCORE.RESTR>
0

>  <SCORE.RESTR.CAVITY>
0

>  <SCORE.RESTR.norm>
0

>  <SCORE.SYSTEM>
0

>  <SCORE.SYSTEM.CONST>
0

>  <SCORE.SYSTEM.DIHEDRAL>
0

>  <SCORE.SYSTEM.SOLV>
0

>  <SCORE.SYSTEM.norm>
0

>  <SCORE.heavy>
46

>  <SCORE.norm>
-0.519858

>  <RMSD>
6.715

$$$$
lig.pdb
 OpenBabel11021811523D
libRbt.so/2013.1/901 2013/11/27
 46 52  0  0  0  0  0  0  0  0999 V2000
  156.6942   43.9945  146.8491 P   0  0  2  0  0  0  0  0  0  0  0  0
  155.2055   43.7238  146.8523 O   0  0  0  0  0  0  0  0  0  0  0  0
  157.2994   44.4690  148.1451 O   0  0  0  0  0  0  0  0  0  0  0  0
  157.0962   45.0370  145.6929 O   0  0  0  0  0  0  0  0  0  0  0  0
  156.1650   45.4391  144.6968 C   0  0  0  0  0  0  0  0  0  0  0  0
  156.8957   46.0933  143.5358 C   0  0  1  0  0  0  0  0  0  0  0  0
  156.7197   47.4989  143.6416 O   0  0  0  0  0  0  0  0  0  0  0  0
  158.3995   45.8550  143.4847 C   0  0  1  0  0  0  0  0  0  0  0  0
  158.6971   44.8918  142.4847 O   0  0  0  0  0  0  0  0  0  0  0  0
  158.9522   47.1879  143.0322 C   0  0  1  0  0  0  0  0  0  0  0  0
  159.0200   47.2197  141.6052 O   0  0  0  0  0  0  0  0  0  0  0  0
  157.9320   48.2098  143.4424 C   0  0  2  0  0  0  0  0  0  0  0  0
  158.3422   48.8175  144.7305 N   0  0  0  0  0  0  0  0  0  0  0  0
  159.2184   49.8266  144.8767 C   0  0  0  0  0  0  0  0  0  0  0  0
  159.3807   50.1317  146.1866 N   0  0  0  0  0  0  0  0  0  0  0  0
  158.5980   49.3080  146.9062 C   0  0  0  0  0  0  0  0  0  0  0  0
  158.2955   49.0998  148.3419 C   0  0  0  0  0  0  0  0  0  0  0  0
  158.8534   49.8072  149.2150 O   0  0  0  0  0  0  0  0  0  0  0  0
  157.4159   48.1362  148.6649 N   0  0  0  0  0  0  0  0  0  0  0  0
  156.8211   47.3786  147.7241 C   0  0  0  0  0  0  0  0  0  0  0  0
  155.9407   46.4270  148.1071 N   0  0  0  0  0  0  0  0  0  0  0  0
  157.0518   47.5156  146.3987 N   0  0  0  0  0  0  0  0  0  0  0  0
  157.9149   48.4456  145.9370 C   0  0  0  0  0  0  0  0  0  0  0  0
  160.1522   44.1886  142.3285 P   0  0  2  0  0  0  0  0  0  0  0  0
  161.2212   45.2540  142.3390 O   0  0  0  0  0  0  0  0  0  0  0  0
  160.0279   43.2199  141.1674 O   0  0  0  0  0  0  0  0  0  0  0  0
  160.2843   43.3568  143.7070 O   0  0  0  0  0  0  0  0  0  0  0  0
  159.6286   42.0972  143.8485 C   0  0  0  0  0  0  0  0  0  0  0  0
  159.4584   41.6668  145.3087 C   0  0  1  0  0  0  0  0  0  0  0  0
  160.7241   41.2576  145.8314 O   0  0  0  0  0  0  0  0  0  0  0  0
  158.9230   42.7488  146.2440 C   0  0  1  0  0  0  0  0  0  0  0  0
  157.5066   42.6761  146.4007 O   0  0  0  0  0  0  0  0  0  0  0  0
  159.6444   42.4389  147.5423 C   0  0  1  0  0  0  0  0  0  0  0  0
  158.9220   41.4698  148.3070 O   0  0  0  0  0  0  0  0  0  0  0  0
  160.9575   41.8062  147.1313 C   0  0  2  0  0  0  0  0  0  0  0  0
  162.0020   42.8550  147.0264 N   0  0  0  0  0  0  0  0  0  0  0  0
  163.3330   42.6452  147.0599 C   0  0  0  0  0  0  0  0  0  0  0  0
  164.0332   43.8059  146.9268 N   0  0  0  0  0  0  0  0  0  0  0  0
  163.1362   44.7962  146.7964 C   0  0  0  0  0  0  0  0  0  0  0  0
  163.1861   46.2712  146.6309 C   0  0  0  0  0  0  0  0  0  0  0  0
  164.2635   46.9003  146.5563 O   0  0  0  0  0  0  0  0  0  0  0  0
  162.0240   46.9196  146.5368 N   0  0  0  0  0  0  0  0  0  0  0  0
  160.8411   46.2895  146.6047 C   0  0  0  0  0  0  0  0  0  0  0  0
  159.7343   47.0417  146.5127 N   0  0  0  0  0  0  0  0  0  0  0  0
  160.7132   44.9513  146.7632 N   0  0  0  0  0  0  0  0  0  0  0  0
  161.8039   44.1631  146.8648 C   0  0  0  0  0  0  0  0  0  0  0  0
  1  3  2  1  0  0  0
  1 32  1  0  0  0  0
  1  2  1  0  0  0  0
  1  4  1  0  0  0  0
  4  5  1  0  0  0  0
  6  5  1  1  0  0  0
  7  6  1  0  0  0  0
  8  6  1  0  0  0  0
  8 10  1  0  0  0  0
  8  9  1  6  0  0  0
 10 11  1  6  0  0  0
 12 13  1  1  0  0  0
 12  7  1  0  0  0  0
 12 10  1  0  0  0  0
 14 13  1  0  0  0  0
 15 16  1  0  0  0  0
 15 14  2  0  0  0  0
 16 23  2  0  0  0  0
 17 16  1  0  0  0  0
 17 19  1  0  0  0  0
 18 17  2  0  0  0  0
 19 20  2  0  0  0  0
 20 22  1  0  0  0  0
 20 21  1  0  0  0  0
 23 13  1  0  0  0  0
 23 22  1  0  0  0  0
 24 25  2  6  0  0  0
 24  9  1  0  0  0  0
 24 26  1  0  0  0  0
 27 28  1  0  0  0  0
 27 24  1  0  0  0  0
 29 30  1  1  0  0  0
 29 28  1  0  0  0  0
 31 32  1  1  0  0  0
 31 29  1  0  0  0  0
 33 34  1  1  0  0  0
 33 35  1  0  0  0  0
 33 31  1  0  0  0  0
 35 36  1  6  0  0  0
 35 30  1  0  0  0  0
 36 37  1  0  0  0  0
 38 37  2  0  0  0  0
 39 38  1  0  0  0  0
 40 41  2  0  0  0  0
 40 39  1  0  0  0  0
 42 40  1  0  0  0  0
 43 42  2  0  0  0  0
 43 45  1  0  0  0  0
 44 43  1  0  0  0  0
 45 46  1  0  0  0  0
 46 39  2  0  0  0  0
 46 36  1  0  0  0  0
M  END
>  <CHROM.1>
-161.67231391,-85.25551016,159.25775116,45.38157347,145.65666379,2.47632358
-0.87556398,0.89017810

>  <Name>
lig.pdb

>  <RI>
0

>  <Rbt.Current_Directory>
/home/itssahil/PROJECTS/Mol_Feturizer/New_Systems/rnas/4yb0

>  <Rbt.Executable>
rbdock ($Id: //depot/dev/client3/rdock/2013.1/src/exe/rbdock.cxx#4 $)

>  <Rbt.Library>
libRbt.so (2013.1, Build901 2013/11/27)

>  <Rbt.Parameter_File>
/export/apps/rDock/src/rDock_2013.1_src/data/scripts/dock_solv.prm

>  <Rbt.Receptor>
prm/pocket_docking_3.prm

>  <SCORE>
14.0518

>  <SCORE.INTER>
-5.30734

>  <SCORE.INTER.CONST>
1

>  <SCORE.INTER.POLAR>
0

>  <SCORE.INTER.ROT>
2

>  <SCORE.INTER.SOLV>
16.2208

>  <SCORE.INTER.VDW>
-13.8785

>  <SCORE.INTER.norm>
-0.115377

>  <SCORE.INTRA>
9.08368

>  <SCORE.INTRA.DIHEDRAL>
0.155105

>  <SCORE.INTRA.DIHEDRAL.0>
4.74153

>  <SCORE.INTRA.POLAR>
0

>  <SCORE.INTRA.POLAR.0>
0

>  <SCORE.INTRA.REPUL>
0.627194

>  <SCORE.INTRA.REPUL.0>
0

>  <SCORE.INTRA.SOLV>
8.67432

>  <SCORE.INTRA.SOLV.lig_0>
-60.4375

>  <SCORE.INTRA.VDW>
1.533

>  <SCORE.INTRA.VDW.0>
-1.83689

>  <SCORE.INTRA.norm>
0.197471

>  <SCORE.RESTR>
10.2755

>  <SCORE.RESTR.CAVITY>
10.2755

>  <SCORE.RESTR.norm>
0.22338

>  <SCORE.SYSTEM>
0

>  <SCORE.SYSTEM.CONST>
0

>  <SCORE.SYSTEM.DIHEDRAL>
0

>  <SCORE.SYSTEM.SOLV>
0

>  <SCORE.SYSTEM.norm>
0

>  <SCORE.heavy>
46

>  <SCORE.norm>
0.305474

>  <RMSD>
6.755

$$$$
lig.pdb
 OpenBabel11021811523D
libRbt.so/2013.1/901 2013/11/27
 46 52  0  0  0  0  0  0  0  0999 V2000
  159.3956   47.8093  148.3337 P   0  0  2  0  0  0  0  0  0  0  0  0
  159.4208   49.1814  148.9711 O   0  0  0  0  0  0  0  0  0  0  0  0
  160.7301   47.1682  148.0524 O   0  0  0  0  0  0  0  0  0  0  0  0
  158.5405   47.8130  146.9721 O   0  0  0  0  0  0  0  0  0  0  0  0
  157.7516   48.9329  146.5917 C   0  0  0  0  0  0  0  0  0  0  0  0
  156.7660   48.5302  145.5072 C   0  0  1  0  0  0  0  0  0  0  0  0
  157.2584   49.0121  144.2649 O   0  0  0  0  0  0  0  0  0  0  0  0
  156.5564   47.0317  145.3298 C   0  0  1  0  0  0  0  0  0  0  0  0
  155.3165   46.6508  145.9079 O   0  0  0  0  0  0  0  0  0  0  0  0
  156.4461   46.8664  143.8307 C   0  0  1  0  0  0  0  0  0  0  0  0
  155.0794   46.9931  143.4333 O   0  0  0  0  0  0  0  0  0  0  0  0
  157.1813   48.0340  143.2393 C   0  0  2  0  0  0  0  0  0  0  0  0
  158.5567   47.6127  142.8818 N   0  0  0  0  0  0  0  0  0  0  0  0
  159.3022   46.7191  143.5549 C   0  0  0  0  0  0  0  0  0  0  0  0
  160.5161   46.5743  142.9714 N   0  0  0  0  0  0  0  0  0  0  0  0
  160.5633   47.3869  141.9007 C   0  0  0  0  0  0  0  0  0  0  0  0
  161.5528   47.7162  140.8479 C   0  0  0  0  0  0  0  0  0  0  0  0
  162.6806   47.1667  140.8457 O   0  0  0  0  0  0  0  0  0  0  0  0
  161.1993   48.6147  139.9129 N   0  0  0  0  0  0  0  0  0  0  0  0
  159.9881   49.2029  139.9206 C   0  0  0  0  0  0  0  0  0  0  0  0
  159.6854   50.0959  138.9520 N   0  0  0  0  0  0  0  0  0  0  0  0
  159.0400   48.9485  140.8508 N   0  0  0  0  0  0  0  0  0  0  0  0
  159.2652   48.0666  141.8481 C   0  0  0  0  0  0  0  0  0  0  0  0
  154.8836   45.1052  146.1518 P   0  0  2  0  0  0  0  0  0  0  0  0
  155.1129   44.3202  144.8832 O   0  0  0  0  0  0  0  0  0  0  0  0
  153.5146   45.1506  146.8041 O   0  0  0  0  0  0  0  0  0  0  0  0
  155.9750   44.6066  147.2334 O   0  0  0  0  0  0  0  0  0  0  0  0
  155.8128   44.9284  148.6142 C   0  0  0  0  0  0  0  0  0  0  0  0
  157.1105   44.8038  149.4186 C   0  0  1  0  0  0  0  0  0  0  0  0
  157.4212   43.4210  149.6033 O   0  0  0  0  0  0  0  0  0  0  0  0
  158.3354   45.4499  148.7750 C   0  0  1  0  0  0  0  0  0  0  0  0
  158.5569   46.7784  149.2464 O   0  0  0  0  0  0  0  0  0  0  0  0
  159.4529   44.5146  149.1974 C   0  0  1  0  0  0  0  0  0  0  0  0
  159.9722   44.8875  150.4769 O   0  0  0  0  0  0  0  0  0  0  0  0
  158.8032   43.1551  149.3495 C   0  0  2  0  0  0  0  0  0  0  0  0
  158.9187   42.4048  148.0744 N   0  0  0  0  0  0  0  0  0  0  0  0
  157.9380   41.6850  147.4942 C   0  0  0  0  0  0  0  0  0  0  0  0
  158.3464   41.1226  146.3228 N   0  0  0  0  0  0  0  0  0  0  0  0
  159.6231   41.4908  146.1312 C   0  0  0  0  0  0  0  0  0  0  0  0
  160.6667   41.2424  145.1042 C   0  0  0  0  0  0  0  0  0  0  0  0
  160.4523   40.5498  144.0861 O   0  0  0  0  0  0  0  0  0  0  0  0
  161.8592   41.8113  145.2883 N   0  0  0  0  0  0  0  0  0  0  0  0
  162.1372   42.5683  146.3610 C   0  0  0  0  0  0  0  0  0  0  0  0
  163.3738   43.0799  146.4522 N   0  0  0  0  0  0  0  0  0  0  0  0
  161.2437   42.8333  147.3427 N   0  0  0  0  0  0  0  0  0  0  0  0
  159.9921   42.3316  147.2877 C   0  0  0  0  0  0  0  0  0  0  0  0
  1  3  2  6  0  0  0
  1 32  1  0  0  0  0
  1  2  1  0  0  0  0
  1  4  1  0  0  0  0
  4  5  1  0  0  0  0
  6  5  1  1  0  0  0
  7  6  1  0  0  0  0
  8  6  1  0  0  0  0
  8 10  1  0  0  0  0
  8  9  1  1  0  0  0
 10 11  1  1  0  0  0
 12 13  1  1  0  0  0
 12  7  1  0  0  0  0
 12 10  1  0  0  0  0
 14 13  1  0  0  0  0
 15 16  1  0  0  0  0
 15 14  2  0  0  0  0
 16 23  2  0  0  0  0
 17 16  1  0  0  0  0
 17 19  1  0  0  0  0
 18 17  2  0  0  0  0
 19 20  2  0  0  0  0
 20 22  1  0  0  0  0
 20 21  1  0  0  0  0
 23 13  1  0  0  0  0
 23 22  1  0  0  0  0
 24 25  2  6  0  0  0
 24  9  1  0  0  0  0
 24 26  1  0  0  0  0
 27 28  1  0  0  0  0
 27 24  1  0  0  0  0
 29 30  1  6  0  0  0
 29 28  1  0  0  0  0
 31 32  1  1  0  0  0
 31 29  1  0  0  0  0
 33 34  1  1  0  0  0
 33 35  1  0  0  0  0
 33 31  1  0  0  0  0
 35 36  1  6  0  0  0
 35 30  1  0  0  0  0
 36 37  1  0  0  0  0
 38 37  2  0  0  0  0
 39 38  1  0  0  0  0
 40 41  2  0  0  0  0
 40 39  1  0  0  0  0
 42 40  1  0  0  0  0
 43 42  2  0  0  0  0
 43 45  1  0  0  0  0
 44 43  1  0  0  0  0
 45 46  1  0  0  0  0
 46 39  2  0  0  0  0
 46 36  1  0  0  0  0
M  END
>  <CHROM.1>
81.02034491,-21.58806249,158.60231194,45.72828353,145.68804191,1.73388734
-0.62511538,2.27647086

>  <Name>
lig.pdb

>  <RI>
0

>  <Rbt.Current_Directory>
/home/itssahil/PROJECTS/Mol_Feturizer/New_Systems/rnas/4yb0

>  <Rbt.Executable>
rbdock ($Id: //depot/dev/client3/rdock/2013.1/src/exe/rbdock.cxx#4 $)

>  <Rbt.Library>
libRbt.so (2013.1, Build901 2013/11/27)

>  <Rbt.Parameter_File>
/export/apps/rDock/src/rDock_2013.1_src/data/scripts/dock_solv.prm

>  <Rbt.Receptor>
prm/pocket_docking_6.prm

>  <SCORE>
-23.196

>  <SCORE.INTER>
-23.6499

>  <SCORE.INTER.CONST>
1

>  <SCORE.INTER.POLAR>
0

>  <SCORE.INTER.ROT>
2

>  <SCORE.INTER.SOLV>
20.9204

>  <SCORE.INTER.VDW>
-27.6734

>  <SCORE.INTER.norm>
-0.514128

>  <SCORE.INTRA>
0.453858

>  <SCORE.INTRA.DIHEDRAL>
0.0446806

>  <SCORE.INTRA.DIHEDRAL.0>
4.74153

>  <SCORE.INTRA.POLAR>
0

>  <SCORE.INTRA.POLAR.0>
0

>  <SCORE.INTRA.REPUL>
0.00131008

>  <SCORE.INTRA.REPUL.0>
0

>  <SCORE.INTRA.SOLV>
-0.112522

>  <SCORE.INTRA.SOLV.lig_0>
-60.4375

>  <SCORE.INTRA.VDW>
0.481229

>  <SCORE.INTRA.VDW.0>
-1.83689

>  <SCORE.INTRA.norm>
0.00986649

>  <SCORE.RESTR>
0

>  <SCORE.RESTR.CAVITY>
0

>  <SCORE.RESTR.norm>
0

>  <SCORE.SYSTEM>
0

>  <SCORE.SYSTEM.CONST>
0

>  <SCORE.SYSTEM.DIHEDRAL>
0

>  <SCORE.SYSTEM.SOLV>
0

>  <SCORE.SYSTEM.norm>
0

>  <SCORE.heavy>
46

>  <SCORE.norm>
-0.504262

>  <RMSD>
6.812

$$$$
lig.pdb
 OpenBabel11021811523D
libRbt.so/2013.1/901 2013/11/27
 46 52  0  0  0  0  0  0  0  0999 V2000
  155.1506   45.5851  146.0518 P   0  0  2  0  0  0  0  0  0  0  0  0
  153.7317   45.2931  146.4888 O   0  0  0  0  0  0  0  0  0  0  0  0
  155.5900   44.9936  144.7372 O   0  0  0  0  0  0  0  0  0  0  0  0
  156.2108   45.1510  147.1800 O   0  0  0  0  0  0  0  0  0  0  0  0
  155.7941   44.7607  148.4820 C   0  0  0  0  0  0  0  0  0  0  0  0
  156.9764   44.7890  149.4365 C   0  0  1  0  0  0  0  0  0  0  0  0
  157.4009   43.4503  149.6501 O   0  0  0  0  0  0  0  0  0  0  0  0
  158.2012   45.5512  148.9469 C   0  0  1  0  0  0  0  0  0  0  0  0
  158.2750   46.8088  149.6023 O   0  0  0  0  0  0  0  0  0  0  0  0
  159.3584   44.7035  149.4257 C   0  0  1  0  0  0  0  0  0  0  0  0
  159.7542   45.1259  150.7321 O   0  0  0  0  0  0  0  0  0  0  0  0
  158.8111   43.3127  149.5651 C   0  0  2  0  0  0  0  0  0  0  0  0
  159.1388   42.5361  148.3459 N   0  0  0  0  0  0  0  0  0  0  0  0
  158.2867   41.7502  147.6650 C   0  0  0  0  0  0  0  0  0  0  0  0
  158.9095   41.1729  146.6095 N   0  0  0  0  0  0  0  0  0  0  0  0
  160.1886   41.5887  146.6022 C   0  0  0  0  0  0  0  0  0  0  0  0
  161.3850   41.3601  145.7583 C   0  0  0  0  0  0  0  0  0  0  0  0
  161.3218   40.5967  144.7647 O   0  0  0  0  0  0  0  0  0  0  0  0
  162.5222   41.9915  146.0969 N   0  0  0  0  0  0  0  0  0  0  0  0
  162.5852   42.8086  147.1652 C   0  0  0  0  0  0  0  0  0  0  0  0
  163.7548   43.4211  147.4556 N   0  0  0  0  0  0  0  0  0  0  0  0
  161.5328   43.0605  147.9762 N   0  0  0  0  0  0  0  0  0  0  0  0
  160.3303   42.4895  147.7504 C   0  0  0  0  0  0  0  0  0  0  0  0
  159.2817   47.9966  149.1421 P   0  0  2  0  0  0  0  0  0  0  0  0
  160.6710   47.4314  148.9738 O   0  0  0  0  0  0  0  0  0  0  0  0
  159.0206   49.1568  150.0844 O   0  0  0  0  0  0  0  0  0  0  0  0
  158.7287   48.3682  147.6705 O   0  0  0  0  0  0  0  0  0  0  0  0
  157.5834   49.2072  147.5271 C   0  0  0  0  0  0  0  0  0  0  0  0
  156.9195   49.0913  146.1514 C   0  0  1  0  0  0  0  0  0  0  0  0
  157.7329   49.7486  145.1772 O   0  0  0  0  0  0  0  0  0  0  0  0
  156.7032   47.6632  145.6557 C   0  0  1  0  0  0  0  0  0  0  0  0
  155.3977   47.1758  145.9625 O   0  0  0  0  0  0  0  0  0  0  0  0
  156.9075   47.8067  144.1591 C   0  0  1  0  0  0  0  0  0  0  0  0
  155.6871   48.1786  143.5124 O   0  0  0  0  0  0  0  0  0  0  0  0
  157.8779   48.9577  143.9946 C   0  0  2  0  0  0  0  0  0  0  0  0
  159.2648   48.4329  143.9383 N   0  0  0  0  0  0  0  0  0  0  0  0
  160.3674   49.1542  143.6544 C   0  0  0  0  0  0  0  0  0  0  0  0
  161.4959   48.3925  143.6925 N   0  0  0  0  0  0  0  0  0  0  0  0
  161.1201   47.1449  144.0160 C   0  0  0  0  0  0  0  0  0  0  0  0
  161.7998   45.8395  144.2151 C   0  0  0  0  0  0  0  0  0  0  0  0
  163.0382   45.7068  144.1099 O   0  0  0  0  0  0  0  0  0  0  0  0
  161.0393   44.7930  144.5409 N   0  0  0  0  0  0  0  0  0  0  0  0
  159.7069   44.8851  144.6720 C   0  0  0  0  0  0  0  0  0  0  0  0
  159.0387   43.7660  144.9889 N   0  0  0  0  0  0  0  0  0  0  0  0
  159.0148   46.0353  144.4984 N   0  0  0  0  0  0  0  0  0  0  0  0
  159.6523   47.1797  144.1739 C   0  0  0  0  0  0  0  0  0  0  0  0
  1  3  2  6  0  0  0
  1 32  1  0  0  0  0
  1  2  1  0  0  0  0
  1  4  1  0  0  0  0
  4  5  1  0  0  0  0
  6  5  1  6  0  0  0
  7  6  1  0  0  0  0
  8  6  1  0  0  0  0
  8 10  1  0  0  0  0
  8  9  1  1  0  0  0
 10 11  1  1  0  0  0
 12 13  1  6  0  0  0
 12  7  1  0  0  0  0
 12 10  1  0  0  0  0
 14 13  1  0  0  0  0
 15 16  1  0  0  0  0
 15 14  2  0  0  0  0
 16 23  2  0  0  0  0
 17 16  1  0  0  0  0
 17 19  1  0  0  0  0
 18 17  2  0  0  0  0
 19 20  2  0  0  0  0
 20 22  1  0  0  0  0
 20 21  1  0  0  0  0
 23 13  1  0  0  0  0
 23 22  1  0  0  0  0
 24 25  2  6  0  0  0
 24  9  1  0  0  0  0
 24 26  1  0  0  0  0
 27 28  1  0  0  0  0
 27 24  1  0  0  0  0
 29 30  1  6  0  0  0
 29 28  1  0  0  0  0
 31 32  1  6  0  0  0
 31 29  1  0  0  0  0
 33 34  1  6  0  0  0
 33 35  1  0  0  0  0
 33 31  1  0  0  0  0
 35 36  1  1  0  0  0
 35 30  1  0  0  0  0
 36 37  1  0  0  0  0
 38 37  2  0  0  0  0
 39 38  1  0  0  0  0
 40 41  2  0  0  0  0
 40 39  1  0  0  0  0
 42 40  1  0  0  0  0
 43 42  2  0  0  0  0
 43 45  1  0  0  0  0
 44 43  1  0  0  0  0
 45 46  1  0  0  0  0
 46 39  2  0  0  0  0
 46 36  1  0  0  0  0
M  END
>  <CHROM.1>
-18.77508311,-72.87320621,158.82688196,45.64350897,146.63549126,2.31676322
0.57270141,-0.67429371

>  <Name>
lig.pdb

>  <RI>
0

>  <Rbt.Current_Directory>
/home/itssahil/PROJECTS/Mol_Feturizer/New_Systems/rnas/4yb0

>  <Rbt.Executable>
rbdock ($Id: //depot/dev/client3/rdock/2013.1/src/exe/rbdock.cxx#4 $)

>  <Rbt.Library>
libRbt.so (2013.1, Build901 2013/11/27)

>  <Rbt.Parameter_File>
/export/apps/rDock/src/rDock_2013.1_src/data/scripts/dock_solv.prm

>  <Rbt.Receptor>
prm/pocket_docking_6.prm

>  <SCORE>
-16.3237

>  <SCORE.INTER>
-17.5059

>  <SCORE.INTER.CONST>
1

>  <SCORE.INTER.POLAR>
0

>  <SCORE.INTER.ROT>
2

>  <SCORE.INTER.SOLV>
17.0028

>  <SCORE.INTER.VDW>
-22.2715

>  <SCORE.INTER.norm>
-0.380564

>  <SCORE.INTRA>
1.18225

>  <SCORE.INTRA.DIHEDRAL>
0.134792

>  <SCORE.INTRA.DIHEDRAL.0>
4.74153

>  <SCORE.INTRA.POLAR>
0

>  <SCORE.INTRA.POLAR.0>
0

>  <SCORE.INTRA.REPUL>
0.262595

>  <SCORE.INTRA.REPUL.0>
0

>  <SCORE.INTRA.SOLV>
3.69417

>  <SCORE.INTRA.SOLV.lig_0>
-60.4375

>  <SCORE.INTRA.VDW>
-2.04521

>  <SCORE.INTRA.VDW.0>
-1.83689

>  <SCORE.INTRA.norm>
0.025701

>  <SCORE.RESTR>
0

>  <SCORE.RESTR.CAVITY>
0

>  <SCORE.RESTR.norm>
0

>  <SCORE.SYSTEM>
0

>  <SCORE.SYSTEM.CONST>
0

>  <SCORE.SYSTEM.DIHEDRAL>
0

>  <SCORE.SYSTEM.SOLV>
0

>  <SCORE.SYSTEM.norm>
0

>  <SCORE.heavy>
46

>  <SCORE.norm>
-0.354863

>  <RMSD>
6.847

$$$$
lig.pdb
 OpenBabel11021811523D
libRbt.so/2013.1/901 2013/11/27
 46 52  0  0  0  0  0  0  0  0999 V2000
  156.8617   44.5872  148.2475 P   0  0  2  0  0  0  0  0  0  0  0  0
  155.8689   45.3805  149.0688 O   0  0  0  0  0  0  0  0  0  0  0  0
  156.3215   43.8751  147.0341 O   0  0  0  0  0  0  0  0  0  0  0  0
  157.6461   43.5157  149.1539 O   0  0  0  0  0  0  0  0  0  0  0  0
  157.5379   43.5188  150.5714 C   0  0  0  0  0  0  0  0  0  0  0  0
  158.6565   42.6893  151.1801 C   0  0  1  0  0  0  0  0  0  0  0  0
  158.1098   41.4410  151.5811 O   0  0  0  0  0  0  0  0  0  0  0  0
  159.8189   42.3660  150.2499 C   0  0  1  0  0  0  0  0  0  0  0  0
  160.9289   43.1931  150.5669 O   0  0  0  0  0  0  0  0  0  0  0  0
  160.1754   40.9420  150.6133 C   0  0  1  0  0  0  0  0  0  0  0  0
  161.1533   40.9433  151.6553 O   0  0  0  0  0  0  0  0  0  0  0  0
  158.9245   40.3462  151.1910 C   0  0  2  0  0  0  0  0  0  0  0  0
  158.2177   39.5813  150.1365 N   0  0  0  0  0  0  0  0  0  0  0  0
  157.0413   39.9183  149.5796 C   0  0  0  0  0  0  0  0  0  0  0  0
  156.6675   38.9968  148.6596 N   0  0  0  0  0  0  0  0  0  0  0  0
  157.6151   38.0433  148.6161 C   0  0  0  0  0  0  0  0  0  0  0  0
  157.8394   36.7889  147.8597 C   0  0  0  0  0  0  0  0  0  0  0  0
  156.9980   36.4014  147.0137 O   0  0  0  0  0  0  0  0  0  0  0  0
  158.9611   36.0938  148.1149 N   0  0  0  0  0  0  0  0  0  0  0  0
  159.8603   36.5133  149.0251 C   0  0  0  0  0  0  0  0  0  0  0  0
  160.9733   35.7760  149.2370 N   0  0  0  0  0  0  0  0  0  0  0  0
  159.7174   37.6465  149.7491 N   0  0  0  0  0  0  0  0  0  0  0  0
  158.6351   38.4384  149.5925 C   0  0  0  0  0  0  0  0  0  0  0  0
  162.2421   43.3244  149.6212 P   0  0  2  0  0  0  0  0  0  0  0  0
  162.7285   41.9435  149.2541 O   0  0  0  0  0  0  0  0  0  0  0  0
  163.1593   44.3162  150.3118 O   0  0  0  0  0  0  0  0  0  0  0  0
  161.6386   43.9969  148.2822 O   0  0  0  0  0  0  0  0  0  0  0  0
  161.3949   45.4022  148.2344 C   0  0  0  0  0  0  0  0  0  0  0  0
  160.4221   45.8079  147.1228 C   0  0  1  0  0  0  0  0  0  0  0  0
  161.0811   45.7081  145.8585 O   0  0  0  0  0  0  0  0  0  0  0  0
  159.1559   44.9593  147.0295 C   0  0  1  0  0  0  0  0  0  0  0  0
  158.0641   45.5361  147.7446 O   0  0  0  0  0  0  0  0  0  0  0  0
  158.8933   44.9349  145.5353 C   0  0  1  0  0  0  0  0  0  0  0  0
  158.1199   46.0699  145.1360 O   0  0  0  0  0  0  0  0  0  0  0  0
  160.2554   45.0621  144.8858 C   0  0  2  0  0  0  0  0  0  0  0  0
  160.8044   43.7101  144.6158 N   0  0  0  0  0  0  0  0  0  0  0  0
  161.7275   43.0728  145.3630 C   0  0  0  0  0  0  0  0  0  0  0  0
  162.0194   41.8390  144.8653 N   0  0  0  0  0  0  0  0  0  0  0  0
  161.2626   41.6651  143.7702 C   0  0  0  0  0  0  0  0  0  0  0  0
  161.0780   40.5972  142.7547 C   0  0  0  0  0  0  0  0  0  0  0  0
  161.6984   39.5133  142.8029 O   0  0  0  0  0  0  0  0  0  0  0  0
  160.1940   40.8203  141.7808 N   0  0  0  0  0  0  0  0  0  0  0  0
  159.4987   41.9644  141.6886 C   0  0  0  0  0  0  0  0  0  0  0  0
  158.6464   42.0880  140.6602 N   0  0  0  0  0  0  0  0  0  0  0  0
  159.6174   42.9862  142.5684 N   0  0  0  0  0  0  0  0  0  0  0  0
  160.4686   42.9000  143.6122 C   0  0  0  0  0  0  0  0  0  0  0  0
  1  3  2  6  0  0  0
  1 32  1  0  0  0  0
  1  2  1  0  0  0  0
  1  4  1  0  0  0  0
  4  5  1  0  0  0  0
  6  5  1  6  0  0  0
  7  6  1  0  0  0  0
  8  6  1  0  0  0  0
  8 10  1  0  0  0  0
  8  9  1  1  0  0  0
 10 11  1  1  0  0  0
 12 13  1  6  0  0  0
 12  7  1  0  0  0  0
 12 10  1  0  0  0  0
 14 13  1  0  0  0  0
 15 16  1  0  0  0  0
 15 14  2  0  0  0  0
 16 23  2  0  0  0  0
 17 16  1  0  0  0  0
 17 19  1  0  0  0  0
 18 17  2  0  0  0  0
 19 20  2  0  0  0  0
 20 22  1  0  0  0  0
 20 21  1  0  0  0  0
 23 13  1  0  0  0  0
 23 22  1  0  0  0  0
 24 25  2  6  0  0  0
 24  9  1  0  0  0  0
 24 26  1  0  0  0  0
 27 28  1  0  0  0  0
 27 24  1  0  0  0  0
 29 30  1  6  0  0  0
 29 28  1  0  0  0  0
 31 32  1  1  0  0  0
 31 29  1  0  0  0  0
 33 34  1  1  0  0  0
 33 35  1  0  0  0  0
 33 31  1  0  0  0  0
 35 36  1  1  0  0  0
 35 30  1  0  0  0  0
 36 37  1  0  0  0  0
 38 37  2  0  0  0  0
 39 38  1  0  0  0  0
 40 41  2  0  0  0  0
 40 39  1  0  0  0  0
 42 40  1  0  0  0  0
 43 42  2  0  0  0  0
 43 45  1  0  0  0  0
 44 43  1  0  0  0  0
 45 46  1  0  0  0  0
 46 39  2  0  0  0  0
 46 36  1  0  0  0  0
M  END
>  <CHROM.1>
4.03591780,13.89859150,159.53824260,42.03985876,147.57168410,0.27999864,1.43055798
0.46032171

>  <Name>
lig.pdb

>  <RI>
0

>  <Rbt.Current_Directory>
/home/itssahil/PROJECTS/Mol_Feturizer/New_Systems/rnas/4yb0

>  <Rbt.Executable>
rbdock ($Id: //depot/dev/client3/rdock/2013.1/src/exe/rbdock.cxx#4 $)

>  <Rbt.Library>
libRbt.so (2013.1, Build901 2013/11/27)

>  <Rbt.Parameter_File>
/export/apps/rDock/src/rDock_2013.1_src/data/scripts/dock_solv.prm

>  <Rbt.Receptor>
prm/pocket_docking_7.prm

>  <SCORE>
-19.2745

>  <SCORE.INTER>
-19.2584

>  <SCORE.INTER.CONST>
1

>  <SCORE.INTER.POLAR>
0

>  <SCORE.INTER.ROT>
2

>  <SCORE.INTER.SOLV>
19.6362

>  <SCORE.INTER.VDW>
-24.3177

>  <SCORE.INTER.norm>
-0.41866

>  <SCORE.INTRA>
-0.0331814

>  <SCORE.INTRA.DIHEDRAL>
0.0868115

>  <SCORE.INTRA.DIHEDRAL.0>
4.74153

>  <SCORE.INTRA.POLAR>
0

>  <SCORE.INTRA.POLAR.0>
0

>  <SCORE.INTRA.REPUL>
0

>  <SCORE.INTRA.REPUL.0>
0

>  <SCORE.INTRA.SOLV>
0.0997764

>  <SCORE.INTRA.SOLV.lig_0>
-60.4375

>  <SCORE.INTRA.VDW>
-0.126475

>  <SCORE.INTRA.VDW.0>
-1.83689

>  <SCORE.INTRA.norm>
-0.000721335

>  <SCORE.RESTR>
0.0169922

>  <SCORE.RESTR.CAVITY>
0.0169922

>  <SCORE.RESTR.norm>
0.000369396

>  <SCORE.SYSTEM>
0

>  <SCORE.SYSTEM.CONST>
0

>  <SCORE.SYSTEM.DIHEDRAL>
0

>  <SCORE.SYSTEM.SOLV>
0

>  <SCORE.SYSTEM.norm>
0

>  <SCORE.heavy>
46

>  <SCORE.norm>
-0.419012

>  <RMSD>
6.887

$$$$
lig.pdb
 OpenBabel11021811523D
libRbt.so/2013.1/901 2013/11/27
 46 52  0  0  0  0  0  0  0  0999 V2000
  155.4591   45.6532  144.9577 P   0  0  2  0  0  0  0  0  0  0  0  0
  154.0319   45.1541  144.8982 O   0  0  0  0  0  0  0  0  0  0  0  0
  156.2386   45.6322  143.6681 O   0  0  0  0  0  0  0  0  0  0  0  0
  156.3077   44.8656  146.0733 O   0  0  0  0  0  0  0  0  0  0  0  0
  155.6836   43.9870  147.0005 C   0  0  0  0  0  0  0  0  0  0  0  0
  156.6254   43.6978  148.1576 C   0  0  1  0  0  0  0  0  0  0  0  0
  157.1701   42.3998  147.9671 O   0  0  0  0  0  0  0  0  0  0  0  0
  157.8130   44.6424  148.2933 C   0  0  1  0  0  0  0  0  0  0  0  0
  157.5799   45.5534  149.3574 O   0  0  0  0  0  0  0  0  0  0  0  0
  158.9466   43.7271  148.6984 C   0  0  1  0  0  0  0  0  0  0  0  0
  159.0005   43.6317  150.1232 O   0  0  0  0  0  0  0  0  0  0  0  0
  158.5723   42.3671  148.1849 C   0  0  2  0  0  0  0  0  0  0  0  0
  159.2483   42.1338  146.8867 N   0  0  0  0  0  0  0  0  0  0  0  0
  158.7094   41.5124  145.8233 C   0  0  0  0  0  0  0  0  0  0  0  0
  159.5995   41.4527  144.8038 N   0  0  0  0  0  0  0  0  0  0  0  0
  160.7373   42.0443  145.2089 C   0  0  0  0  0  0  0  0  0  0  0  0
  162.0683   42.3237  144.6205 C   0  0  0  0  0  0  0  0  0  0  0  0
  162.3309   41.9602  143.4488 O   0  0  0  0  0  0  0  0  0  0  0  0
  162.9685   42.9693  145.3818 N   0  0  0  0  0  0  0  0  0  0  0  0
  162.6822   43.3560  146.6393 C   0  0  0  0  0  0  0  0  0  0  0  0
  163.6250   44.0065  147.3572 N   0  0  0  0  0  0  0  0  0  0  0  0
  161.4895   43.1329  147.2363 N   0  0  0  0  0  0  0  0  0  0  0  0
  160.4958   42.4927  146.5839 C   0  0  0  0  0  0  0  0  0  0  0  0
  158.4934   46.8695  149.6208 P   0  0  2  0  0  0  0  0  0  0  0  0
  159.9498   46.4736  149.6034 O   0  0  0  0  0  0  0  0  0  0  0  0
  157.8889   47.5658  150.8257 O   0  0  0  0  0  0  0  0  0  0  0  0
  158.2162   47.7536  148.2976 O   0  0  0  0  0  0  0  0  0  0  0  0
  157.0250   48.5325  148.1938 C   0  0  0  0  0  0  0  0  0  0  0  0
  156.6852   48.9253  146.7527 C   0  0  1  0  0  0  0  0  0  0  0  0
  157.5896   49.9414  146.3140 O   0  0  0  0  0  0  0  0  0  0  0  0
  156.7695   47.7895  145.7354 C   0  0  1  0  0  0  0  0  0  0  0  0
  155.5054   47.1652  145.5155 O   0  0  0  0  0  0  0  0  0  0  0  0
  157.2615   48.5060  144.4917 C   0  0  1  0  0  0  0  0  0  0  0  0
  156.1651   49.0443  143.7474 O   0  0  0  0  0  0  0  0  0  0  0  0
  158.0828   49.6730  144.9988 C   0  0  2  0  0  0  0  0  0  0  0  0
  159.5080   49.2712  145.0962 N   0  0  0  0  0  0  0  0  0  0  0  0
  160.5248   50.0677  145.4813 C   0  0  0  0  0  0  0  0  0  0  0  0
  161.7155   49.4063  145.4816 N   0  0  0  0  0  0  0  0  0  0  0  0
  161.4675   48.1453  145.0935 C   0  0  0  0  0  0  0  0  0  0  0  0
  162.2715   46.9180  144.8634 C   0  0  0  0  0  0  0  0  0  0  0  0
  163.5061   46.8811  145.0545 O   0  0  0  0  0  0  0  0  0  0  0  0
  161.6228   45.8236  144.4620 N   0  0  0  0  0  0  0  0  0  0  0  0
  160.2979   45.8102  144.2489 C   0  0  0  0  0  0  0  0  0  0  0  0
  159.7509   44.6583  143.8326 N   0  0  0  0  0  0  0  0  0  0  0  0
  159.4994   46.8885  144.4275 N   0  0  0  0  0  0  0  0  0  0  0  0
  160.0149   48.0654  144.8403 C   0  0  0  0  0  0  0  0  0  0  0  0
  1  3  2  6  0  0  0
  1 32  1  0  0  0  0
  1  2  1  0  0  0  0
  1  4  1  0  0  0  0
  4  5  1  0  0  0  0
  6  5  1  6  0  0  0
  7  6  1  0  0  0  0
  8  6  1  0  0  0  0
  8 10  1  0  0  0  0
  8  9  1  1  0  0  0
 10 11  1  1  0  0  0
 12 13  1  6  0  0  0
 12  7  1  0  0  0  0
 12 10  1  0  0  0  0
 14 13  1  0  0  0  0
 15 16  1  0  0  0  0
 15 14  2  0  0  0  0
 16 23  2  0  0  0  0
 17 16  1  0  0  0  0
 17 19  1  0  0  0  0
 18 17  2  0  0  0  0
 19 20  2  0  0  0  0
 20 22  1  0  0  0  0
 20 21  1  0  0  0  0
 23 13  1  0  0  0  0
 23 22  1  0  0  0  0
 24 25  2  1  0  0  0
 24  9  1  0  0  0  0
 24 26  1  0  0  0  0
 27 28  1  0  0  0  0
 27 24  1  0  0  0  0
 29 30  1  6  0  0  0
 29 28  1  0  0  0  0
 31 32  1  6  0  0  0
 31 29  1  0  0  0  0
 33 34  1  1  0  0  0
 33 35  1  0  0  0  0
 33 31  1  0  0  0  0
 35 36  1  1  0  0  0
 35 30  1  0  0  0  0
 36 37  1  0  0  0  0
 38 37  2  0  0  0  0
 39 38  1  0  0  0  0
 40 41  2  0  0  0  0
 40 39  1  0  0  0  0
 42 40  1  0  0  0  0
 43 42  2  0  0  0  0
 43 45  1  0  0  0  0
 44 43  1  0  0  0  0
 45 46  1  0  0  0  0
 46 39  2  0  0  0  0
 46 36  1  0  0  0  0
M  END
>  <CHROM.1>
-25.82821407,-66.94643602,158.88377538,45.68509744,146.35825092,2.31554998
0.37027160,-0.28932279

>  <Name>
lig.pdb

>  <RI>
0

>  <Rbt.Current_Directory>
/home/itssahil/PROJECTS/Mol_Feturizer/New_Systems/rnas/4yb0

>  <Rbt.Executable>
rbdock ($Id: //depot/dev/client3/rdock/2013.1/src/exe/rbdock.cxx#4 $)

>  <Rbt.Library>
libRbt.so (2013.1, Build901 2013/11/27)

>  <Rbt.Parameter_File>
/export/apps/rDock/src/rDock_2013.1_src/data/scripts/dock_solv.prm

>  <Rbt.Receptor>
prm/pocket_docking_4.prm

>  <SCORE>
-12.3034

>  <SCORE.INTER>
-14.4156

>  <SCORE.INTER.CONST>
1

>  <SCORE.INTER.POLAR>
0

>  <SCORE.INTER.ROT>
2

>  <SCORE.INTER.SOLV>
15.64

>  <SCORE.INTER.VDW>
-19.7571

>  <SCORE.INTER.norm>
-0.313383

>  <SCORE.INTRA>
0.905383

>  <SCORE.INTRA.DIHEDRAL>
0.125797

>  <SCORE.INTRA.DIHEDRAL.0>
4.74153

>  <SCORE.INTRA.POLAR>
0

>  <SCORE.INTRA.POLAR.0>
0

>  <SCORE.INTRA.REPUL>
0.137201

>  <SCORE.INTRA.REPUL.0>
0

>  <SCORE.INTRA.SOLV>
3.89497

>  <SCORE.INTRA.SOLV.lig_0>
-60.4375

>  <SCORE.INTRA.VDW>
-1.791

>  <SCORE.INTRA.VDW.0>
-1.83689

>  <SCORE.INTRA.norm>
0.0196822

>  <SCORE.RESTR>
1.20684

>  <SCORE.RESTR.CAVITY>
1.20684

>  <SCORE.RESTR.norm>
0.0262356

>  <SCORE.SYSTEM>
0

>  <SCORE.SYSTEM.CONST>
0

>  <SCORE.SYSTEM.DIHEDRAL>
0

>  <SCORE.SYSTEM.SOLV>
0

>  <SCORE.SYSTEM.norm>
0

>  <SCORE.heavy>
46

>  <SCORE.norm>
-0.267465

>  <RMSD>
6.892

$$$$
lig.pdb
 OpenBabel11021811523D
libRbt.so/2013.1/901 2013/11/27
 46 52  0  0  0  0  0  0  0  0999 V2000
  159.1911   44.6573  150.3996 P   0  0  2  0  0  0  0  0  0  0  0  0
  158.7458   44.9725  151.8110 O   0  0  0  0  0  0  0  0  0  0  0  0
  160.6408   44.2909  150.2124 O   0  0  0  0  0  0  0  0  0  0  0  0
  158.8409   45.8615  149.3936 O   0  0  0  0  0  0  0  0  0  0  0  0
  158.0204   46.9512  149.7941 C   0  0  0  0  0  0  0  0  0  0  0  0
  157.5367   47.7145  148.5722 C   0  0  1  0  0  0  0  0  0  0  0  0
  158.3048   48.9047  148.4649 O   0  0  0  0  0  0  0  0  0  0  0  0
  157.6858   46.9900  147.2404 C   0  0  1  0  0  0  0  0  0  0  0  0
  156.4220   46.4972  146.8203 O   0  0  0  0  0  0  0  0  0  0  0  0
  158.1025   48.0874  146.2870 C   0  0  1  0  0  0  0  0  0  0  0  0
  156.9415   48.6850  145.7064 O   0  0  0  0  0  0  0  0  0  0  0  0
  158.7532   49.1384  147.1387 C   0  0  2  0  0  0  0  0  0  0  0  0
  160.2237   48.9572  147.0967 N   0  0  0  0  0  0  0  0  0  0  0  0
  160.9727   48.4025  148.0655 C   0  0  0  0  0  0  0  0  0  0  0  0
  162.2817   48.4042  147.7168 N   0  0  0  0  0  0  0  0  0  0  0  0
  162.3882   48.9695  146.5011 C   0  0  0  0  0  0  0  0  0  0  0  0
  163.4864   49.2790  145.5555 C   0  0  0  0  0  0  0  0  0  0  0  0
  164.6727   48.9956  145.8493 O   0  0  0  0  0  0  0  0  0  0  0  0
  163.1651   49.8685  144.3911 N   0  0  0  0  0  0  0  0  0  0  0  0
  161.8904   50.1720  144.0813 C   0  0  0  0  0  0  0  0  0  0  0  0
  161.6254   50.7602  142.8934 N   0  0  0  0  0  0  0  0  0  0  0  0
  160.8424   49.9176  144.8972 N   0  0  0  0  0  0  0  0  0  0  0  0
  161.0250   49.3294  146.0987 C   0  0  0  0  0  0  0  0  0  0  0  0
  156.2362   45.4472  145.5959 P   0  0  2  0  0  0  0  0  0  0  0  0
  157.0106   45.9408  144.3980 O   0  0  0  0  0  0  0  0  0  0  0  0
  154.7474   45.1707  145.5022 O   0  0  0  0  0  0  0  0  0  0  0  0
  156.9905   44.1312  146.1512 O   0  0  0  0  0  0  0  0  0  0  0  0
  156.3302   43.2621  147.0705 C   0  0  0  0  0  0  0  0  0  0  0  0
  157.2945   42.3561  147.8425 C   0  0  1  0  0  0  0  0  0  0  0  0
  157.7857   41.3363  146.9698 O   0  0  0  0  0  0  0  0  0  0  0  0
  158.5151   43.0613  148.4294 C   0  0  1  0  0  0  0  0  0  0  0  0
  158.3140   43.4511  149.7873 O   0  0  0  0  0  0  0  0  0  0  0  0
  159.5913   41.9987  148.3077 C   0  0  1  0  0  0  0  0  0  0  0  0
  159.5853   41.1356  149.4483 O   0  0  0  0  0  0  0  0  0  0  0  0
  159.1991   41.1654  147.1055 C   0  0  2  0  0  0  0  0  0  0  0  0
  159.8635   41.7022  145.8920 N   0  0  0  0  0  0  0  0  0  0  0  0
  160.8522   42.6180  145.8771 C   0  0  0  0  0  0  0  0  0  0  0  0
  161.2643   42.8993  144.6097 N   0  0  0  0  0  0  0  0  0  0  0  0
  160.5305   42.1428  143.7782 C   0  0  0  0  0  0  0  0  0  0  0  0
  160.4354   41.9500  142.3086 C   0  0  0  0  0  0  0  0  0  0  0  0
  161.1724   42.5601  141.5045 O   0  0  0  0  0  0  0  0  0  0  0  0
  159.5388   41.0698  141.8602 N   0  0  0  0  0  0  0  0  0  0  0  0
  158.7290   40.3853  142.6827 C   0  0  0  0  0  0  0  0  0  0  0  0
  157.8547   39.5359  142.1228 N   0  0  0  0  0  0  0  0  0  0  0  0
  158.7491   40.5121  144.0302 N   0  0  0  0  0  0  0  0  0  0  0  0
  159.6111   41.3606  144.6287 C   0  0  0  0  0  0  0  0  0  0  0  0
  1  3  2  6  0  0  0
  1 32  1  0  0  0  0
  1  2  1  0  0  0  0
  1  4  1  0  0  0  0
  4  5  1  0  0  0  0
  6  5  1  1  0  0  0
  7  6  1  0  0  0  0
  8  6  1  0  0  0  0
  8 10  1  0  0  0  0
  8  9  1  6  0  0  0
 10 11  1  1  0  0  0
 12 13  1  1  0  0  0
 12  7  1  0  0  0  0
 12 10  1  0  0  0  0
 14 13  1  0  0  0  0
 15 16  1  0  0  0  0
 15 14  2  0  0  0  0
 16 23  2  0  0  0  0
 17 16  1  0  0  0  0
 17 19  1  0  0  0  0
 18 17  2  0  0  0  0
 19 20  2  0  0  0  0
 20 22  1  0  0  0  0
 20 21  1  0  0  0  0
 23 13  1  0  0  0  0
 23 22  1  0  0  0  0
 24 25  2  6  0  0  0
 24  9  1  0  0  0  0
 24 26  1  0  0  0  0
 27 28  1  0  0  0  0
 27 24  1  0  0  0  0
 29 30  1  6  0  0  0
 29 28  1  0  0  0  0
 31 32  1  1  0  0  0
 31 29  1  0  0  0  0
 33 34  1  1  0  0  0
 33 35  1  0  0  0  0
 33 31  1  0  0  0  0
 35 36  1  6  0  0  0
 35 30  1  0  0  0  0
 36 37  1  0  0  0  0
 38 37  2  0  0  0  0
 39 38  1  0  0  0  0
 40 41  2  0  0  0  0
 40 39  1  0  0  0  0
 42 40  1  0  0  0  0
 43 42  2  0  0  0  0
 43 45  1  0  0  0  0
 44 43  1  0  0  0  0
 45 46  1  0  0  0  0
 46 39  2  0  0  0  0
 46 36  1  0  0  0  0
M  END
>  <CHROM.1>
12.52660516,126.28239743,159.24338574,45.22197161,146.47381429,0.97077539
1.06018928,0.68785448

>  <Name>
lig.pdb

>  <RI>
0

>  <Rbt.Current_Directory>
/home/itssahil/PROJECTS/Mol_Feturizer/New_Systems/rnas/4yb0

>  <Rbt.Executable>
rbdock ($Id: //depot/dev/client3/rdock/2013.1/src/exe/rbdock.cxx#4 $)

>  <Rbt.Library>
libRbt.so (2013.1, Build901 2013/11/27)

>  <Rbt.Parameter_File>
/export/apps/rDock/src/rDock_2013.1_src/data/scripts/dock_solv.prm

>  <Rbt.Receptor>
prm/pocket_docking_8.prm

>  <SCORE>
-17.4479

>  <SCORE.INTER>
-18.1456

>  <SCORE.INTER.CONST>
1

>  <SCORE.INTER.POLAR>
0

>  <SCORE.INTER.ROT>
2

>  <SCORE.INTER.SOLV>
17.879

>  <SCORE.INTER.VDW>
-22.9901

>  <SCORE.INTER.norm>
-0.39447

>  <SCORE.INTRA>
0.697728

>  <SCORE.INTRA.DIHEDRAL>
0.0477897

>  <SCORE.INTRA.DIHEDRAL.0>
4.74153

>  <SCORE.INTRA.POLAR>
0

>  <SCORE.INTRA.POLAR.0>
0

>  <SCORE.INTRA.REPUL>
0.012659

>  <SCORE.INTRA.REPUL.0>
0

>  <SCORE.INTRA.SOLV>
-0.141499

>  <SCORE.INTRA.SOLV.lig_0>
-60.4375

>  <SCORE.INTRA.VDW>
0.681288

>  <SCORE.INTRA.VDW.0>
-1.83689

>  <SCORE.INTRA.norm>
0.015168

>  <SCORE.RESTR>
0

>  <SCORE.RESTR.CAVITY>
0

>  <SCORE.RESTR.norm>
0

>  <SCORE.SYSTEM>
0

>  <SCORE.SYSTEM.CONST>
0

>  <SCORE.SYSTEM.DIHEDRAL>
0

>  <SCORE.SYSTEM.SOLV>
0

>  <SCORE.SYSTEM.norm>
0

>  <SCORE.heavy>
46

>  <SCORE.norm>
-0.379302

>  <RMSD>
6.926

$$$$
lig.pdb
 OpenBabel11021811523D
libRbt.so/2013.1/901 2013/11/27
 46 52  0  0  0  0  0  0  0  0999 V2000
  156.6820   44.5303  148.3592 P   0  0  2  0  0  0  0  0  0  0  0  0
  155.6594   45.3144  149.1524 O   0  0  0  0  0  0  0  0  0  0  0  0
  156.1723   43.7672  147.1639 O   0  0  0  0  0  0  0  0  0  0  0  0
  157.4947   43.5107  149.2999 O   0  0  0  0  0  0  0  0  0  0  0  0
  157.3778   43.5505  150.7162 C   0  0  0  0  0  0  0  0  0  0  0  0
  158.5185   42.7749  151.3540 C   0  0  1  0  0  0  0  0  0  0  0  0
  158.0095   41.5216  151.7877 O   0  0  0  0  0  0  0  0  0  0  0  0
  159.6963   42.4628  150.4396 C   0  0  1  0  0  0  0  0  0  0  0  0
  160.7774   43.3338  150.7385 O   0  0  0  0  0  0  0  0  0  0  0  0
  160.0959   41.0619  150.8453 C   0  0  1  0  0  0  0  0  0  0  0  0
  161.0668   41.1240  151.8919 O   0  0  0  0  0  0  0  0  0  0  0  0
  158.8611   40.4429  151.4333 C   0  0  2  0  0  0  0  0  0  0  0  0
  158.1855   39.6261  150.3973 N   0  0  0  0  0  0  0  0  0  0  0  0
  156.9732   39.8741  149.8716 C   0  0  0  0  0  0  0  0  0  0  0  0
  156.6447   38.9261  148.9614 N   0  0  0  0  0  0  0  0  0  0  0  0
  157.6589   38.0454  148.8927 C   0  0  0  0  0  0  0  0  0  0  0  0
  157.9556   36.8099  148.1301 C   0  0  0  0  0  0  0  0  0  0  0  0
  157.1234   36.3598  147.3063 O   0  0  0  0  0  0  0  0  0  0  0  0
  159.1320   36.2002  148.3555 N   0  0  0  0  0  0  0  0  0  0  0  0
  160.0212   36.6866  149.2419 C   0  0  0  0  0  0  0  0  0  0  0  0
  161.1910   36.0340  149.4242 N   0  0  0  0  0  0  0  0  0  0  0  0
  159.8138   37.8071  149.9700 N   0  0  0  0  0  0  0  0  0  0  0  0
  158.6721   38.5164  149.8421 C   0  0  0  0  0  0  0  0  0  0  0  0
  162.0915   43.4802  149.7964 P   0  0  2  0  0  0  0  0  0  0  0  0
  162.6239   42.1058  149.4713 O   0  0  0  0  0  0  0  0  0  0  0  0
  162.9724   44.5201  150.4631 O   0  0  0  0  0  0  0  0  0  0  0  0
  161.4750   44.0948  148.4356 O   0  0  0  0  0  0  0  0  0  0  0  0
  161.1869   45.4896  148.3465 C   0  0  0  0  0  0  0  0  0  0  0  0
  160.2085   45.8322  147.2187 C   0  0  1  0  0  0  0  0  0  0  0  0
  160.8780   45.7178  145.9611 O   0  0  0  0  0  0  0  0  0  0  0  0
  158.9707   44.9412  147.1430 C   0  0  1  0  0  0  0  0  0  0  0  0
  157.8566   45.5027  147.8357 O   0  0  0  0  0  0  0  0  0  0  0  0
  158.7181   44.8660  145.6488 C   0  0  1  0  0  0  0  0  0  0  0  0
  157.9113   45.9639  145.2133 O   0  0  0  0  0  0  0  0  0  0  0  0
  160.0794   45.0183  145.0030 C   0  0  2  0  0  0  0  0  0  0  0  0
  160.6728   43.6775  144.7746 N   0  0  0  0  0  0  0  0  0  0  0  0
  161.5496   43.0568  145.5885 C   0  0  0  0  0  0  0  0  0  0  0  0
  161.9015   41.8296  145.1139 N   0  0  0  0  0  0  0  0  0  0  0  0
  161.2321   41.6429  143.9652 C   0  0  0  0  0  0  0  0  0  0  0  0
  161.1444   40.5734  142.9386 C   0  0  0  0  0  0  0  0  0  0  0  0
  161.7802   39.5015  143.0329 O   0  0  0  0  0  0  0  0  0  0  0  0
  160.3315   40.7811  141.9014 N   0  0  0  0  0  0  0  0  0  0  0  0
  159.6232   41.9118  141.7577 C   0  0  0  0  0  0  0  0  0  0  0  0
  158.8479   42.0207  140.6685 N   0  0  0  0  0  0  0  0  0  0  0  0
  159.6563   42.9343  142.6441 N   0  0  0  0  0  0  0  0  0  0  0  0
  160.4285   42.8627  143.7485 C   0  0  0  0  0  0  0  0  0  0  0  0
  1  3  2  6  0  0  0
  1 32  1  0  0  0  0
  1  2  1  0  0  0  0
  1  4  1  0  0  0  0
  4  5  1  0  0  0  0
  6  5  1  6  0  0  0
  7  6  1  0  0  0  0
  8  6  1  0  0  0  0
  8 10  1  0  0  0  0
  8  9  1  1  0  0  0
 10 11  1  1  0  0  0
 12 13  1  6  0  0  0
 12  7  1  0  0  0  0
 12 10  1  0  0  0  0
 14 13  1  0  0  0  0
 15 16  1  0  0  0  0
 15 14  2  0  0  0  0
 16 23  2  0  0  0  0
 17 16  1  0  0  0  0
 17 19  1  0  0  0  0
 18 17  2  0  0  0  0
 19 20  2  0  0  0  0
 20 22  1  0  0  0  0
 20 21  1  0  0  0  0
 23 13  1  0  0  0  0
 23 22  1  0  0  0  0
 24 25  2  6  0  0  0
 24  9  1  0  0  0  0
 24 26  1  0  0  0  0
 27 28  1  0  0  0  0
 27 24  1  0  0  0  0
 29 30  1  6  0  0  0
 29 28  1  0  0  0  0
 31 32  1  1  0  0  0
 31 29  1  0  0  0  0
 33 34  1  6  0  0  0
 33 35  1  0  0  0  0
 33 31  1  0  0  0  0
 35 36  1  1  0  0  0
 35 30  1  0  0  0  0
 36 37  1  0  0  0  0
 38 37  2  0  0  0  0
 39 38  1  0  0  0  0
 40 41  2  0  0  0  0
 40 39  1  0  0  0  0
 42 40  1  0  0  0  0
 43 42  2  0  0  0  0
 43 45  1  0  0  0  0
 44 43  1  0  0  0  0
 45 46  1  0  0  0  0
 46 39  2  0  0  0  0
 46 36  1  0  0  0  0
M  END
>  <CHROM.1>
0.61066882,18.26333058,159.46844026,42.07170523,147.74399088,0.56480138,1.41782681
0.07931237

>  <Name>
lig.pdb

>  <RI>
0

>  <Rbt.Current_Directory>
/home/itssahil/PROJECTS/Mol_Feturizer/New_Systems/rnas/4yb0

>  <Rbt.Executable>
rbdock ($Id: //depot/dev/client3/rdock/2013.1/src/exe/rbdock.cxx#4 $)

>  <Rbt.Library>
libRbt.so (2013.1, Build901 2013/11/27)

>  <Rbt.Parameter_File>
/export/apps/rDock/src/rDock_2013.1_src/data/scripts/dock_solv.prm

>  <Rbt.Receptor>
prm/pocket_docking_8.prm

>  <SCORE>
-19.4643

>  <SCORE.INTER>
-19.4445

>  <SCORE.INTER.CONST>
1

>  <SCORE.INTER.POLAR>
0

>  <SCORE.INTER.ROT>
2

>  <SCORE.INTER.SOLV>
19.2227

>  <SCORE.INTER.VDW>
-24.3039

>  <SCORE.INTER.norm>
-0.422706

>  <SCORE.INTRA>
-0.0198216

>  <SCORE.INTRA.DIHEDRAL>
0.104321

>  <SCORE.INTRA.DIHEDRAL.0>
4.74153

>  <SCORE.INTRA.POLAR>
0

>  <SCORE.INTRA.POLAR.0>
0

>  <SCORE.INTRA.REPUL>
0

>  <SCORE.INTRA.REPUL.0>
0

>  <SCORE.INTRA.SOLV>
0.123642

>  <SCORE.INTRA.SOLV.lig_0>
-60.4375

>  <SCORE.INTRA.VDW>
-0.133803

>  <SCORE.INTRA.VDW.0>
-1.83689

>  <SCORE.INTRA.norm>
-0.000430905

>  <SCORE.RESTR>
0

>  <SCORE.RESTR.CAVITY>
0

>  <SCORE.RESTR.norm>
0

>  <SCORE.SYSTEM>
0

>  <SCORE.SYSTEM.CONST>
0

>  <SCORE.SYSTEM.DIHEDRAL>
0

>  <SCORE.SYSTEM.SOLV>
0

>  <SCORE.SYSTEM.norm>
0

>  <SCORE.heavy>
46

>  <SCORE.norm>
-0.423137

>  <RMSD>
6.987

$$$$
lig.pdb
 OpenBabel11021811523D
libRbt.so/2013.1/901 2013/11/27
 46 52  0  0  0  0  0  0  0  0999 V2000
  157.8968   46.6079  143.6509 P   0  0  2  0  0  0  0  0  0  0  0  0
  156.7518   46.8988  142.7054 O   0  0  0  0  0  0  0  0  0  0  0  0
  158.8059   45.4638  143.2823 O   0  0  0  0  0  0  0  0  0  0  0  0
  157.3701   46.3708  145.1513 O   0  0  0  0  0  0  0  0  0  0  0  0
  156.0223   46.6362  145.5176 C   0  0  0  0  0  0  0  0  0  0  0  0
  155.8993   46.7084  147.0306 C   0  0  1  0  0  0  0  0  0  0  0  0
  155.3201   45.4928  147.4831 O   0  0  0  0  0  0  0  0  0  0  0  0
  157.2094   46.8653  147.7921 C   0  0  1  0  0  0  0  0  0  0  0  0
  157.3476   48.2078  148.2338 O   0  0  0  0  0  0  0  0  0  0  0  0
  157.0170   45.9880  149.0087 C   0  0  1  0  0  0  0  0  0  0  0  0
  156.4381   46.7548  150.0665 O   0  0  0  0  0  0  0  0  0  0  0  0
  155.9994   44.9593  148.6094 C   0  0  2  0  0  0  0  0  0  0  0  0
  156.6973   43.7182  148.1980 N   0  0  0  0  0  0  0  0  0  0  0  0
  156.5612   43.0992  147.0123 C   0  0  0  0  0  0  0  0  0  0  0  0
  157.3277   41.9831  146.9659 N   0  0  0  0  0  0  0  0  0  0  0  0
  157.9737   41.8723  148.1403 C   0  0  0  0  0  0  0  0  0  0  0  0
  158.9392   40.9259  148.7473 C   0  0  0  0  0  0  0  0  0  0  0  0
  159.3311   39.9227  148.1040 O   0  0  0  0  0  0  0  0  0  0  0  0
  159.3682   41.1808  149.9952 N   0  0  0  0  0  0  0  0  0  0  0  0
  158.9433   42.2582  150.6820 C   0  0  0  0  0  0  0  0  0  0  0  0
  159.4125   42.4671  151.9324 N   0  0  0  0  0  0  0  0  0  0  0  0
  158.0645   43.1599  150.1884 N   0  0  0  0  0  0  0  0  0  0  0  0
  157.5533   43.0226  148.9463 C   0  0  0  0  0  0  0  0  0  0  0  0
  158.7296   48.8108  148.8359 P   0  0  2  0  0  0  0  0  0  0  0  0
  159.2607   47.8731  149.8927 O   0  0  0  0  0  0  0  0  0  0  0  0
  158.4482   50.2670  149.1556 O   0  0  0  0  0  0  0  0  0  0  0  0
  159.7263   48.7248  147.5675 O   0  0  0  0  0  0  0  0  0  0  0  0
  159.6719   49.7196  146.5459 C   0  0  0  0  0  0  0  0  0  0  0  0
  160.3160   49.2692  145.2310 C   0  0  1  0  0  0  0  0  0  0  0  0
  161.7374   49.2586  145.3803 O   0  0  0  0  0  0  0  0  0  0  0  0
  159.9111   47.8754  144.7562 C   0  0  1  0  0  0  0  0  0  0  0  0
  158.8259   47.9132  143.8305 O   0  0  0  0  0  0  0  0  0  0  0  0
  161.1852   47.3747  144.1019 C   0  0  1  0  0  0  0  0  0  0  0  0
  161.2489   47.7842  142.7329 O   0  0  0  0  0  0  0  0  0  0  0  0
  162.3135   48.0680  144.8364 C   0  0  2  0  0  0  0  0  0  0  0  0
  162.7793   47.2096  145.9537 N   0  0  0  0  0  0  0  0  0  0  0  0
  163.1904   47.6451  147.1611 C   0  0  0  0  0  0  0  0  0  0  0  0
  163.5444   46.6148  147.9787 N   0  0  0  0  0  0  0  0  0  0  0  0
  163.3526   45.4790  147.2892 C   0  0  0  0  0  0  0  0  0  0  0  0
  163.5370   44.0275  147.5440 C   0  0  0  0  0  0  0  0  0  0  0  0
  163.9500   43.5873  148.6384 O   0  0  0  0  0  0  0  0  0  0  0  0
  163.2196   43.1847  146.5598 N   0  0  0  0  0  0  0  0  0  0  0  0
  162.7665   43.6069  145.3693 C   0  0  0  0  0  0  0  0  0  0  0  0
  162.4913   42.6730  144.4466 N   0  0  0  0  0  0  0  0  0  0  0  0
  162.5805   44.9111  145.0582 N   0  0  0  0  0  0  0  0  0  0  0  0
  162.8516   45.8788  145.9589 C   0  0  0  0  0  0  0  0  0  0  0  0
  1  3  2  6  0  0  0
  1 32  1  0  0  0  0
  1  2  1  0  0  0  0
  1  4  1  0  0  0  0
  4  5  1  0  0  0  0
  6  5  1  6  0  0  0
  7  6  1  0  0  0  0
  8  6  1  0  0  0  0
  8 10  1  0  0  0  0
  8  9  1  1  0  0  0
 10 11  1  1  0  0  0
 12 13  1  6  0  0  0
 12  7  1  0  0  0  0
 12 10  1  0  0  0  0
 14 13  1  0  0  0  0
 15 16  1  0  0  0  0
 15 14  2  0  0  0  0
 16 23  2  0  0  0  0
 17 16  1  0  0  0  0
 17 19  1  0  0  0  0
 18 17  2  0  0  0  0
 19 20  2  0  0  0  0
 20 22  1  0  0  0  0
 20 21  1  0  0  0  0
 23 13  1  0  0  0  0
 23 22  1  0  0  0  0
 24 25  2  1  0  0  0
 24  9  1  0  0  0  0
 24 26  1  0  0  0  0
 27 28  1  0  0  0  0
 27 24  1  0  0  0  0
 29 30  1  1  0  0  0
 29 28  1  0  0  0  0
 31 32  1  6  0  0  0
 31 29  1  0  0  0  0
 33 34  1  6  0  0  0
 33 35  1  0  0  0  0
 33 31  1  0  0  0  0
 35 36  1  1  0  0  0
 35 30  1  0  0  0  0
 36 37  1  0  0  0  0
 38 37  2  0  0  0  0
 39 38  1  0  0  0  0
 40 41  2  0  0  0  0
 40 39  1  0  0  0  0
 42 40  1  0  0  0  0
 43 42  2  0  0  0  0
 43 45  1  0  0  0  0
 44 43  1  0  0  0  0
 45 46  1  0  0  0  0
 46 39  2  0  0  0  0
 46 36  1  0  0  0  0
M  END
>  <CHROM.1>
-8.49737763,-28.71950602,159.41301367,45.80221198,146.93769878,1.25940322
0.33017489,-0.53321012

>  <Name>
lig.pdb

>  <RI>
0

>  <Rbt.Current_Directory>
/home/itssahil/PROJECTS/Mol_Feturizer/New_Systems/rnas/4yb0

>  <Rbt.Executable>
rbdock ($Id: //depot/dev/client3/rdock/2013.1/src/exe/rbdock.cxx#4 $)

>  <Rbt.Library>
libRbt.so (2013.1, Build901 2013/11/27)

>  <Rbt.Parameter_File>
/export/apps/rDock/src/rDock_2013.1_src/data/scripts/dock_solv.prm

>  <Rbt.Receptor>
prm/pocket_docking_8.prm

>  <SCORE>
-14.4336

>  <SCORE.INTER>
-14.7889

>  <SCORE.INTER.CONST>
1

>  <SCORE.INTER.POLAR>
0

>  <SCORE.INTER.ROT>
2

>  <SCORE.INTER.SOLV>
14.9363

>  <SCORE.INTER.VDW>
-19.7714

>  <SCORE.INTER.norm>
-0.321499

>  <SCORE.INTRA>
0.355381

>  <SCORE.INTRA.DIHEDRAL>
0.0173147

>  <SCORE.INTRA.DIHEDRAL.0>
4.74153

>  <SCORE.INTRA.POLAR>
0

>  <SCORE.INTRA.POLAR.0>
0

>  <SCORE.INTRA.REPUL>
0.0129203

>  <SCORE.INTRA.REPUL.0>
0

>  <SCORE.INTRA.SOLV>
0.0613698

>  <SCORE.INTRA.SOLV.lig_0>
-60.4375

>  <SCORE.INTRA.VDW>
0.251437

>  <SCORE.INTRA.VDW.0>
-1.83689

>  <SCORE.INTRA.norm>
0.00772568

>  <SCORE.RESTR>
0

>  <SCORE.RESTR.CAVITY>
0

>  <SCORE.RESTR.norm>
0

>  <SCORE.SYSTEM>
0

>  <SCORE.SYSTEM.CONST>
0

>  <SCORE.SYSTEM.DIHEDRAL>
0

>  <SCORE.SYSTEM.SOLV>
0

>  <SCORE.SYSTEM.norm>
0

>  <SCORE.heavy>
46

>  <SCORE.norm>
-0.313773

>  <RMSD>
7.102

$$$$
lig.pdb
 OpenBabel11021811523D
libRbt.so/2013.1/901 2013/11/27
 46 52  0  0  0  0  0  0  0  0999 V2000
  155.2276   45.6423  146.0525 P   0  0  2  0  0  0  0  0  0  0  0  0
  153.7879   45.3116  146.3803 O   0  0  0  0  0  0  0  0  0  0  0  0
  155.7846   45.0569  144.7805 O   0  0  0  0  0  0  0  0  0  0  0  0
  156.2087   45.2450  147.2628 O   0  0  0  0  0  0  0  0  0  0  0  0
  155.7033   44.8496  148.5314 C   0  0  0  0  0  0  0  0  0  0  0  0
  156.8065   44.9171  149.5745 C   0  0  1  0  0  0  0  0  0  0  0  0
  157.2511   43.5924  149.8304 O   0  0  0  0  0  0  0  0  0  0  0  0
  158.0435   45.7119  149.1758 C   0  0  1  0  0  0  0  0  0  0  0  0
  158.0303   46.9745  149.8255 O   0  0  0  0  0  0  0  0  0  0  0  0
  159.1836   44.9006  149.7492 C   0  0  1  0  0  0  0  0  0  0  0  0
  159.4645   45.3410  151.0793 O   0  0  0  0  0  0  0  0  0  0  0  0
  158.6669   43.4952  149.8561 C   0  0  2  0  0  0  0  0  0  0  0  0
  159.1105   42.7221  148.6719 N   0  0  0  0  0  0  0  0  0  0  0  0
  158.3336   41.9183  147.9251 C   0  0  0  0  0  0  0  0  0  0  0  0
  159.0536   41.3506  146.9279 N   0  0  0  0  0  0  0  0  0  0  0  0
  160.3206   41.7908  147.0262 C   0  0  0  0  0  0  0  0  0  0  0  0
  161.5878   41.5832  146.2865 C   0  0  0  0  0  0  0  0  0  0  0  0
  161.6227   40.8163  145.2942 O   0  0  0  0  0  0  0  0  0  0  0  0
  162.6804   42.2372  146.7167 N   0  0  0  0  0  0  0  0  0  0  0  0
  162.6381   43.0580  147.7831 C   0  0  0  0  0  0  0  0  0  0  0  0
  163.7673   43.6936  148.1681 N   0  0  0  0  0  0  0  0  0  0  0  0
  161.5167   43.2916  148.5021 N   0  0  0  0  0  0  0  0  0  0  0  0
  160.3485   42.6970  148.1785 C   0  0  0  0  0  0  0  0  0  0  0  0
  159.0354   48.1886  149.4360 P   0  0  2  0  0  0  0  0  0  0  0  0
  160.4492   47.6629  149.3802 O   0  0  0  0  0  0  0  0  0  0  0  0
  158.6689   49.3455  150.3465 O   0  0  0  0  0  0  0  0  0  0  0  0
  158.5882   48.5363  147.9232 O   0  0  0  0  0  0  0  0  0  0  0  0
  157.4341   49.3410  147.6851 C   0  0  0  0  0  0  0  0  0  0  0  0
  156.8828   49.1987  146.2630 C   0  0  1  0  0  0  0  0  0  0  0  0
  157.7504   49.8742  145.3500 O   0  0  0  0  0  0  0  0  0  0  0  0
  156.7465   47.7624  145.7626 C   0  0  1  0  0  0  0  0  0  0  0  0
  155.4354   47.2390  145.9708 O   0  0  0  0  0  0  0  0  0  0  0  0
  157.0624   47.9039  144.2854 C   0  0  1  0  0  0  0  0  0  0  0  0
  155.8859   48.2370  143.5432 O   0  0  0  0  0  0  0  0  0  0  0  0
  158.0094   49.0817  144.1881 C   0  0  2  0  0  0  0  0  0  0  0  0
  159.4109   48.5970  144.2435 N   0  0  0  0  0  0  0  0  0  0  0  0
  160.5133   49.3673  144.1535 C   0  0  0  0  0  0  0  0  0  0  0  0
  161.6555   48.6319  144.2514 N   0  0  0  0  0  0  0  0  0  0  0  0
  161.2884   47.3511  144.4162 C   0  0  0  0  0  0  0  0  0  0  0  0
  161.9854   46.0491  144.5731 C   0  0  0  0  0  0  0  0  0  0  0  0
  163.2315   45.9558  144.5985 O   0  0  0  0  0  0  0  0  0  0  0  0
  161.2291   44.9593  144.7144 N   0  0  0  0  0  0  0  0  0  0  0  0
  159.8881   45.0075  144.7002 C   0  0  0  0  0  0  0  0  0  0  0  0
  159.2268   43.8484  144.8366 N   0  0  0  0  0  0  0  0  0  0  0  0
  159.1811   46.1524  144.5530 N   0  0  0  0  0  0  0  0  0  0  0  0
  159.8119   47.3367  144.4079 C   0  0  0  0  0  0  0  0  0  0  0  0
  1  3  2  6  0  0  0
  1 32  1  0  0  0  0
  1  2  1  0  0  0  0
  1  4  1  0  0  0  0
  4  5  1  0  0  0  0
  6  5  1  6  0  0  0
  7  6  1  0  0  0  0
  8  6  1  0  0  0  0
  8 10  1  0  0  0  0
  8  9  1  1  0  0  0
 10 11  1  1  0  0  0
 12 13  1  6  0  0  0
 12  7  1  0  0  0  0
 12 10  1  0  0  0  0
 14 13  1  0  0  0  0
 15 16  1  0  0  0  0
 15 14  2  0  0  0  0
 16 23  2  0  0  0  0
 17 16  1  0  0  0  0
 17 19  1  0  0  0  0
 18 17  2  0  0  0  0
 19 20  2  0  0  0  0
 20 22  1  0  0  0  0
 20 21  1  0  0  0  0
 23 13  1  0  0  0  0
 23 22  1  0  0  0  0
 24 25  2  1  0  0  0
 24  9  1  0  0  0  0
 24 26  1  0  0  0  0
 27 28  1  0  0  0  0
 27 24  1  0  0  0  0
 29 30  1  6  0  0  0
 29 28  1  0  0  0  0
 31 32  1  6  0  0  0
 31 29  1  0  0  0  0
 33 34  1  6  0  0  0
 33 35  1  0  0  0  0
 33 31  1  0  0  0  0
 35 36  1  1  0  0  0
 35 30  1  0  0  0  0
 36 37  1  0  0  0  0
 38 37  2  0  0  0  0
 39 38  1  0  0  0  0
 40 41  2  0  0  0  0
 40 39  1  0  0  0  0
 42 40  1  0  0  0  0
 43 42  2  0  0  0  0
 43 45  1  0  0  0  0
 44 43  1  0  0  0  0
 45 46  1  0  0  0  0
 46 39  2  0  0  0  0
 46 36  1  0  0  0  0
M  END
>  <CHROM.1>
-18.09524383,-66.88110330,158.84420585,45.80140022,146.88960585,2.30947136
0.53560699,-0.69982476

>  <Name>
lig.pdb

>  <RI>
0

>  <Rbt.Current_Directory>
/home/itssahil/PROJECTS/Mol_Feturizer/New_Systems/rnas/4yb0

>  <Rbt.Executable>
rbdock ($Id: //depot/dev/client3/rdock/2013.1/src/exe/rbdock.cxx#4 $)

>  <Rbt.Library>
libRbt.so (2013.1, Build901 2013/11/27)

>  <Rbt.Parameter_File>
/export/apps/rDock/src/rDock_2013.1_src/data/scripts/dock_solv.prm

>  <Rbt.Receptor>
prm/pocket_docking_8.prm

>  <SCORE>
-16.0697

>  <SCORE.INTER>
-16.6253

>  <SCORE.INTER.CONST>
1

>  <SCORE.INTER.POLAR>
0

>  <SCORE.INTER.ROT>
2

>  <SCORE.INTER.SOLV>
16.3355

>  <SCORE.INTER.VDW>
-21.462

>  <SCORE.INTER.norm>
-0.36142

>  <SCORE.INTRA>
0.555658

>  <SCORE.INTRA.DIHEDRAL>
0.117757

>  <SCORE.INTRA.DIHEDRAL.0>
4.74153

>  <SCORE.INTRA.POLAR>
0

>  <SCORE.INTRA.POLAR.0>
0

>  <SCORE.INTRA.REPUL>
0.128892

>  <SCORE.INTRA.REPUL.0>
0

>  <SCORE.INTRA.SOLV>
2.59794

>  <SCORE.INTRA.SOLV.lig_0>
-60.4375

>  <SCORE.INTRA.VDW>
-1.44665

>  <SCORE.INTRA.VDW.0>
-1.83689

>  <SCORE.INTRA.norm>
0.0120795

>  <SCORE.RESTR>
0

>  <SCORE.RESTR.CAVITY>
0

>  <SCORE.RESTR.norm>
0

>  <SCORE.SYSTEM>
0

>  <SCORE.SYSTEM.CONST>
0

>  <SCORE.SYSTEM.DIHEDRAL>
0

>  <SCORE.SYSTEM.SOLV>
0

>  <SCORE.SYSTEM.norm>
0

>  <SCORE.heavy>
46

>  <SCORE.norm>
-0.349341

>  <RMSD>
7.133

$$$$
lig.pdb
 OpenBabel11021811523D
libRbt.so/2013.1/901 2013/11/27
 46 52  0  0  0  0  0  0  0  0999 V2000
  154.8292   44.9966  146.4457 P   0  0  2  0  0  0  0  0  0  0  0  0
  153.3846   44.8749  146.8790 O   0  0  0  0  0  0  0  0  0  0  0  0
  155.3243   43.9837  145.4457 O   0  0  0  0  0  0  0  0  0  0  0  0
  155.8218   44.9840  147.7105 O   0  0  0  0  0  0  0  0  0  0  0  0
  155.3318   45.0723  149.0421 C   0  0  0  0  0  0  0  0  0  0  0  0
  156.4639   45.4324  149.9899 C   0  0  1  0  0  0  0  0  0  0  0  0
  156.8520   44.2526  150.6794 O   0  0  0  0  0  0  0  0  0  0  0  0
  157.7262   45.9764  149.3329 C   0  0  1  0  0  0  0  0  0  0  0  0
  157.7897   47.3837  149.5120 O   0  0  0  0  0  0  0  0  0  0  0  0
  158.8413   45.3496  150.1394 C   0  0  1  0  0  0  0  0  0  0  0  0
  159.1775   46.2015  151.2364 O   0  0  0  0  0  0  0  0  0  0  0  0
  158.2618   44.0946  150.7247 C   0  0  2  0  0  0  0  0  0  0  0  0
  158.6371   42.9415  149.8724 N   0  0  0  0  0  0  0  0  0  0  0  0
  158.3727   42.8186  148.5600 C   0  0  0  0  0  0  0  0  0  0  0  0
  158.8389   41.6375  148.0878 N   0  0  0  0  0  0  0  0  0  0  0  0
  159.4162   40.9794  149.1088 C   0  0  0  0  0  0  0  0  0  0  0  0
  160.1056   39.6807  149.2938 C   0  0  0  0  0  0  0  0  0  0  0  0
  160.2477   38.8964  148.3249 O   0  0  0  0  0  0  0  0  0  0  0  0
  160.5622   39.3815  150.5219 N   0  0  0  0  0  0  0  0  0  0  0  0
  160.4058   40.2261  151.5588 C   0  0  0  0  0  0  0  0  0  0  0  0
  160.8899   39.8746  152.7711 N   0  0  0  0  0  0  0  0  0  0  0  0
  159.7873   41.4245  151.4594 N   0  0  0  0  0  0  0  0  0  0  0  0
  159.2802   41.8483  150.2820 C   0  0  0  0  0  0  0  0  0  0  0  0
  158.8406   48.3367  148.7224 P   0  0  2  0  0  0  0  0  0  0  0  0
  160.2260   47.7489  148.8376 O   0  0  0  0  0  0  0  0  0  0  0  0
  158.5532   49.7526  149.1856 O   0  0  0  0  0  0  0  0  0  0  0  0
  158.3708   48.1712  147.1858 O   0  0  0  0  0  0  0  0  0  0  0  0
  157.2502   48.9069  146.6967 C   0  0  0  0  0  0  0  0  0  0  0  0
  156.6556   48.3179  145.4137 C   0  0  1  0  0  0  0  0  0  0  0  0
  157.5300   48.5943  144.3174 O   0  0  0  0  0  0  0  0  0  0  0  0
  156.4385   46.8065  145.4356 C   0  0  1  0  0  0  0  0  0  0  0  0
  155.1101   46.4563  145.8213 O   0  0  0  0  0  0  0  0  0  0  0  0
  156.7219   46.4189  143.9963 C   0  0  1  0  0  0  0  0  0  0  0  0
  155.5434   46.5412  143.1950 O   0  0  0  0  0  0  0  0  0  0  0  0
  157.7207   47.4405  143.4942 C   0  0  2  0  0  0  0  0  0  0  0  0
  159.0986   46.9297  143.7001 N   0  0  0  0  0  0  0  0  0  0  0  0
  160.0534   47.5215  144.4449 C   0  0  0  0  0  0  0  0  0  0  0  0
  161.2108   46.8034  144.4502 N   0  0  0  0  0  0  0  0  0  0  0  0
  161.0030   45.7128  143.6954 C   0  0  0  0  0  0  0  0  0  0  0  0
  161.8054   44.5394  143.2652 C   0  0  0  0  0  0  0  0  0  0  0  0
  162.9882   44.3673  143.6305 O   0  0  0  0  0  0  0  0  0  0  0  0
  161.2090   43.6403  142.4806 N   0  0  0  0  0  0  0  0  0  0  0  0
  159.9398   43.7762  142.0664 C   0  0  0  0  0  0  0  0  0  0  0  0
  159.4448   42.8188  141.2678 N   0  0  0  0  0  0  0  0  0  0  0  0
  159.1481   44.8198  142.4075 N   0  0  0  0  0  0  0  0  0  0  0  0
  159.6132   45.8045  143.2047 C   0  0  0  0  0  0  0  0  0  0  0  0
  1  3  2  6  0  0  0
  1 32  1  0  0  0  0
  1  2  1  0  0  0  0
  1  4  1  0  0  0  0
  4  5  1  0  0  0  0
  6  5  1  6  0  0  0
  7  6  1  0  0  0  0
  8  6  1  0  0  0  0
  8 10  1  0  0  0  0
  8  9  1  1  0  0  0
 10 11  1  1  0  0  0
 12 13  1  6  0  0  0
 12  7  1  0  0  0  0
 12 10  1  0  0  0  0
 14 13  1  0  0  0  0
 15 16  1  0  0  0  0
 15 14  2  0  0  0  0
 16 23  2  0  0  0  0
 17 16  1  0  0  0  0
 17 19  1  0  0  0  0
 18 17  2  0  0  0  0
 19 20  2  0  0  0  0
 20 22  1  0  0  0  0
 20 21  1  0  0  0  0
 23 13  1  0  0  0  0
 23 22  1  0  0  0  0
 24 25  2  1  0  0  0
 24  9  1  0  0  0  0
 24 26  1  0  0  0  0
 27 28  1  0  0  0  0
 27 24  1  0  0  0  0
 29 30  1  6  0  0  0
 29 28  1  0  0  0  0
 31 32  1  6  0  0  0
 31 29  1  0  0  0  0
 33 34  1  6  0  0  0
 33 35  1  0  0  0  0
 33 31  1  0  0  0  0
 35 36  1  1  0  0  0
 35 30  1  0  0  0  0
 36 37  1  0  0  0  0
 38 37  2  0  0  0  0
 39 38  1  0  0  0  0
 40 41  2  0  0  0  0
 40 39  1  0  0  0  0
 42 40  1  0  0  0  0
 43 42  2  0  0  0  0
 43 45  1  0  0  0  0
 44 43  1  0  0  0  0
 45 46  1  0  0  0  0
 46 39  2  0  0  0  0
 46 36  1  0  0  0  0
M  END
>  <CHROM.1>
58.47274480,-5.50270605,158.34922827,45.00172840,147.08788973,1.85032384
0.97035906,-1.12134784

>  <Name>
lig.pdb

>  <RI>
0

>  <Rbt.Current_Directory>
/home/itssahil/PROJECTS/Mol_Feturizer/New_Systems/rnas/4yb0

>  <Rbt.Executable>
rbdock ($Id: //depot/dev/client3/rdock/2013.1/src/exe/rbdock.cxx#4 $)

>  <Rbt.Library>
libRbt.so (2013.1, Build901 2013/11/27)

>  <Rbt.Parameter_File>
/export/apps/rDock/src/rDock_2013.1_src/data/scripts/dock_solv.prm

>  <Rbt.Receptor>
prm/pocket_docking_6.prm

>  <SCORE>
-15.3464

>  <SCORE.INTER>
-15.2621

>  <SCORE.INTER.CONST>
1

>  <SCORE.INTER.POLAR>
0

>  <SCORE.INTER.ROT>
2

>  <SCORE.INTER.SOLV>
20.2922

>  <SCORE.INTER.VDW>
-21.8722

>  <SCORE.INTER.norm>
-0.331785

>  <SCORE.INTRA>
-0.0843124

>  <SCORE.INTRA.DIHEDRAL>
0.0371464

>  <SCORE.INTRA.DIHEDRAL.0>
4.74153

>  <SCORE.INTRA.POLAR>
0

>  <SCORE.INTRA.POLAR.0>
0

>  <SCORE.INTRA.REPUL>
0

>  <SCORE.INTRA.REPUL.0>
0

>  <SCORE.INTRA.SOLV>
-0.0219591

>  <SCORE.INTRA.SOLV.lig_0>
-60.4375

>  <SCORE.INTRA.VDW>
-0.091906

>  <SCORE.INTRA.VDW.0>
-1.83689

>  <SCORE.INTRA.norm>
-0.00183288

>  <SCORE.RESTR>
0

>  <SCORE.RESTR.CAVITY>
0

>  <SCORE.RESTR.norm>
0

>  <SCORE.SYSTEM>
0

>  <SCORE.SYSTEM.CONST>
0

>  <SCORE.SYSTEM.DIHEDRAL>
0

>  <SCORE.SYSTEM.SOLV>
0

>  <SCORE.SYSTEM.norm>
0

>  <SCORE.heavy>
46

>  <SCORE.norm>
-0.333618

>  <RMSD>
7.340

$$$$
lig.pdb
 OpenBabel11021811523D
libRbt.so/2013.1/901 2013/11/27
 46 52  0  0  0  0  0  0  0  0999 V2000
  160.9777   50.0191  145.0675 P   0  0  2  0  0  0  0  0  0  0  0  0
  162.0507   51.0800  144.9549 O   0  0  0  0  0  0  0  0  0  0  0  0
  159.7706   50.3621  145.9019 O   0  0  0  0  0  0  0  0  0  0  0  0
  161.5836   48.6297  145.6038 O   0  0  0  0  0  0  0  0  0  0  0  0
  162.9855   48.4254  145.7220 C   0  0  0  0  0  0  0  0  0  0  0  0
  163.2846   46.9421  145.8633 C   0  0  1  0  0  0  0  0  0  0  0  0
  163.5763   46.6806  147.2288 O   0  0  0  0  0  0  0  0  0  0  0  0
  162.1487   46.0010  145.4827 C   0  0  1  0  0  0  0  0  0  0  0  0
  162.4091   45.4277  144.2099 O   0  0  0  0  0  0  0  0  0  0  0  0
  162.2381   44.9035  146.5193 C   0  0  1  0  0  0  0  0  0  0  0  0
  163.1051   43.8693  146.0495 O   0  0  0  0  0  0  0  0  0  0  0  0
  162.9075   45.5251  147.7105 C   0  0  2  0  0  0  0  0  0  0  0  0
  161.8734   45.9474  148.6847 N   0  0  0  0  0  0  0  0  0  0  0  0
  161.0887   45.1234  149.4008 C   0  0  0  0  0  0  0  0  0  0  0  0
  160.2416   45.8327  150.1847 N   0  0  0  0  0  0  0  0  0  0  0  0
  160.4773   47.1403  149.9761 C   0  0  0  0  0  0  0  0  0  0  0  0
  159.9353   48.4218  150.4861 C   0  0  0  0  0  0  0  0  0  0  0  0
  159.0088   48.4247  151.3321 O   0  0  0  0  0  0  0  0  0  0  0  0
  160.4662   49.5615  150.0112 N   0  0  0  0  0  0  0  0  0  0  0  0
  161.4594   49.5530  149.1022 C   0  0  0  0  0  0  0  0  0  0  0  0
  161.9584   50.7302  148.6634 N   0  0  0  0  0  0  0  0  0  0  0  0
  161.9989   48.4211  148.5957 N   0  0  0  0  0  0  0  0  0  0  0  0
  161.5571   47.2065  148.9864 C   0  0  0  0  0  0  0  0  0  0  0  0
  161.3019   44.5949  143.3634 P   0  0  2  0  0  0  0  0  0  0  0  0
  160.6639   43.5635  144.2620 O   0  0  0  0  0  0  0  0  0  0  0  0
  161.9815   44.1883  142.0693 O   0  0  0  0  0  0  0  0  0  0  0  0
  160.1865   45.7208  143.0508 O   0  0  0  0  0  0  0  0  0  0  0  0
  160.3853   46.6485  141.9849 C   0  0  0  0  0  0  0  0  0  0  0  0
  159.5096   47.8998  142.1035 C   0  0  1  0  0  0  0  0  0  0  0  0
  158.1580   47.5628  141.7838 O   0  0  0  0  0  0  0  0  0  0  0  0
  159.4885   48.5460  143.4870 C   0  0  1  0  0  0  0  0  0  0  0  0
  160.4410   49.6018  143.6056 O   0  0  0  0  0  0  0  0  0  0  0  0
  158.0659   49.0653  143.5790 C   0  0  1  0  0  0  0  0  0  0  0  0
  157.9631   50.3718  143.0058 O   0  0  0  0  0  0  0  0  0  0  0  0
  157.2398   48.1277  142.7234 C   0  0  2  0  0  0  0  0  0  0  0  0
  156.6913   47.0384  143.5689 N   0  0  0  0  0  0  0  0  0  0  0  0
  157.3656   46.3711  144.5263 C   0  0  0  0  0  0  0  0  0  0  0  0
  156.5864   45.4359  145.1375 N   0  0  0  0  0  0  0  0  0  0  0  0
  155.3720   45.5000  144.5689 C   0  0  0  0  0  0  0  0  0  0  0  0
  154.0780   44.7878  144.7240 C   0  0  0  0  0  0  0  0  0  0  0  0
  153.9084   43.8848  145.5713 O   0  0  0  0  0  0  0  0  0  0  0  0
  153.0706   45.1628  143.9338 N   0  0  0  0  0  0  0  0  0  0  0  0
  153.2002   46.1306  143.0133 C   0  0  0  0  0  0  0  0  0  0  0  0
  152.1259   46.4172  142.2630 N   0  0  0  0  0  0  0  0  0  0  0  0
  154.3474   46.8186  142.8060 N   0  0  0  0  0  0  0  0  0  0  0  0
  155.4500   46.5542  143.5378 C   0  0  0  0  0  0  0  0  0  0  0  0
  1  3  2  1  0  0  0
  1 32  1  0  0  0  0
  1  2  1  0  0  0  0
  1  4  1  0  0  0  0
  4  5  1  0  0  0  0
  6  5  1  1  0  0  0
  7  6  1  0  0  0  0
  8  6  1  0  0  0  0
  8 10  1  0  0  0  0
  8  9  1  6  0  0  0
 10 11  1  6  0  0  0
 12 13  1  1  0  0  0
 12  7  1  0  0  0  0
 12 10  1  0  0  0  0
 14 13  1  0  0  0  0
 15 16  1  0  0  0  0
 15 14  2  0  0  0  0
 16 23  2  0  0  0  0
 17 16  1  0  0  0  0
 17 19  1  0  0  0  0
 18 17  2  0  0  0  0
 19 20  2  0  0  0  0
 20 22  1  0  0  0  0
 20 21  1  0  0  0  0
 23 13  1  0  0  0  0
 23 22  1  0  0  0  0
 24 25  2  1  0  0  0
 24  9  1  0  0  0  0
 24 26  1  0  0  0  0
 27 28  1  0  0  0  0
 27 24  1  0  0  0  0
 29 30  1  1  0  0  0
 29 28  1  0  0  0  0
 31 32  1  6  0  0  0
 31 29  1  0  0  0  0
 33 34  1  6  0  0  0
 33 35  1  0  0  0  0
 33 31  1  0  0  0  0
 35 36  1  1  0  0  0
 35 30  1  0  0  0  0
 36 37  1  0  0  0  0
 38 37  2  0  0  0  0
 39 38  1  0  0  0  0
 40 41  2  0  0  0  0
 40 39  1  0  0  0  0
 42 40  1  0  0  0  0
 43 42  2  0  0  0  0
 43 45  1  0  0  0  0
 44 43  1  0  0  0  0
 45 46  1  0  0  0  0
 46 39  2  0  0  0  0
 46 36  1  0  0  0  0
M  END
>  <CHROM.1>
-176.27924945,72.00103909,159.59915603,47.06931871,145.41502107,-0.63057214
-0.00643419,-1.86606362

>  <Name>
lig.pdb

>  <RI>
0

>  <Rbt.Current_Directory>
/home/itssahil/PROJECTS/Mol_Feturizer/New_Systems/rnas/4yb0

>  <Rbt.Executable>
rbdock ($Id: //depot/dev/client3/rdock/2013.1/src/exe/rbdock.cxx#4 $)

>  <Rbt.Library>
libRbt.so (2013.1, Build901 2013/11/27)

>  <Rbt.Parameter_File>
/export/apps/rDock/src/rDock_2013.1_src/data/scripts/dock_solv.prm

>  <Rbt.Receptor>
prm/pocket_docking_8.prm

>  <SCORE>
-19.1599

>  <SCORE.INTER>
-18.976

>  <SCORE.INTER.CONST>
1

>  <SCORE.INTER.POLAR>
0

>  <SCORE.INTER.ROT>
2

>  <SCORE.INTER.SOLV>
14.9578

>  <SCORE.INTER.VDW>
-22.5699

>  <SCORE.INTER.norm>
-0.412521

>  <SCORE.INTRA>
-0.18397

>  <SCORE.INTRA.DIHEDRAL>
0.0341367

>  <SCORE.INTRA.DIHEDRAL.0>
4.74153

>  <SCORE.INTRA.POLAR>
0

>  <SCORE.INTRA.POLAR.0>
0

>  <SCORE.INTRA.REPUL>
0

>  <SCORE.INTRA.REPUL.0>
0

>  <SCORE.INTRA.SOLV>
2.15294

>  <SCORE.INTRA.SOLV.lig_0>
-60.4375

>  <SCORE.INTRA.VDW>
-1.27751

>  <SCORE.INTRA.VDW.0>
-1.83689

>  <SCORE.INTRA.norm>
-0.00399934

>  <SCORE.RESTR>
0

>  <SCORE.RESTR.CAVITY>
0

>  <SCORE.RESTR.norm>
0

>  <SCORE.SYSTEM>
0

>  <SCORE.SYSTEM.CONST>
0

>  <SCORE.SYSTEM.DIHEDRAL>
0

>  <SCORE.SYSTEM.SOLV>
0

>  <SCORE.SYSTEM.norm>
0

>  <SCORE.heavy>
46

>  <SCORE.norm>
-0.416521

>  <RMSD>
7.379

$$$$
lig.pdb
 OpenBabel11021811523D
libRbt.so/2013.1/901 2013/11/27
 46 52  0  0  0  0  0  0  0  0999 V2000
  159.2249   44.6949  150.4129 P   0  0  2  0  0  0  0  0  0  0  0  0
  158.7866   45.0181  151.8247 O   0  0  0  0  0  0  0  0  0  0  0  0
  160.6790   44.3515  150.2167 O   0  0  0  0  0  0  0  0  0  0  0  0
  158.8451   45.8818  149.3969 O   0  0  0  0  0  0  0  0  0  0  0  0
  158.0094   46.9616  149.7929 C   0  0  0  0  0  0  0  0  0  0  0  0
  157.5019   47.7028  148.5670 C   0  0  1  0  0  0  0  0  0  0  0  0
  158.2483   48.9048  148.4399 O   0  0  0  0  0  0  0  0  0  0  0  0
  157.6517   46.9663  147.2420 C   0  0  1  0  0  0  0  0  0  0  0  0
  156.3930   46.4472  146.8387 O   0  0  0  0  0  0  0  0  0  0  0  0
  158.0409   48.0600  146.2729 C   0  0  1  0  0  0  0  0  0  0  0  0
  156.8647   48.6311  145.6963 O   0  0  0  0  0  0  0  0  0  0  0  0
  158.6809   49.1314  147.1072 C   0  0  2  0  0  0  0  0  0  0  0  0
  160.1538   48.9751  147.0540 N   0  0  0  0  0  0  0  0  0  0  0  0
  160.9179   48.4204  148.0110 C   0  0  0  0  0  0  0  0  0  0  0  0
  162.2245   48.4482  147.6544 N   0  0  0  0  0  0  0  0  0  0  0  0
  162.3141   49.0308  146.4455 C   0  0  0  0  0  0  0  0  0  0  0  0
  163.4012   49.3706  145.4975 C   0  0  0  0  0  0  0  0  0  0  0  0
  164.5938   49.1030  145.7803 O   0  0  0  0  0  0  0  0  0  0  0  0
  163.0629   49.9696  144.3428 N   0  0  0  0  0  0  0  0  0  0  0  0
  161.7815   50.2561  144.0446 C   0  0  0  0  0  0  0  0  0  0  0  0
  161.4995   50.8550  142.8661 N   0  0  0  0  0  0  0  0  0  0  0  0
  160.7429   49.9739  144.8635 N   0  0  0  0  0  0  0  0  0  0  0  0
  160.9427   49.3733  146.0561 C   0  0  0  0  0  0  0  0  0  0  0  0
  156.2146   45.3806  145.6276 P   0  0  2  0  0  0  0  0  0  0  0  0
  156.9698   45.8741  144.4174 O   0  0  0  0  0  0  0  0  0  0  0  0
  154.7300   45.0775  145.5503 O   0  0  0  0  0  0  0  0  0  0  0  0
  156.9965   44.0840  146.1904 O   0  0  0  0  0  0  0  0  0  0  0  0
  156.3594   43.2139  147.1250 C   0  0  0  0  0  0  0  0  0  0  0  0
  157.3459   42.3332  147.8982 C   0  0  1  0  0  0  0  0  0  0  0  0
  157.8471   41.3124  147.0324 O   0  0  0  0  0  0  0  0  0  0  0  0
  158.5593   43.0658  148.4664 C   0  0  1  0  0  0  0  0  0  0  0  0
  158.3634   43.4671  149.8217 O   0  0  0  0  0  0  0  0  0  0  0  0
  159.6526   42.0206  148.3467 C   0  0  1  0  0  0  0  0  0  0  0  0
  159.6715   41.1702  149.4966 O   0  0  0  0  0  0  0  0  0  0  0  0
  159.2643   41.1674  147.1572 C   0  0  2  0  0  0  0  0  0  0  0  0
  159.9086   41.7021  145.9320 N   0  0  0  0  0  0  0  0  0  0  0  0
  159.4973   41.4821  144.6675 C   0  0  0  0  0  0  0  0  0  0  0  0
  160.2875   42.1187  143.7589 N   0  0  0  0  0  0  0  0  0  0  0  0
  161.2333   42.7756  144.4488 C   0  0  0  0  0  0  0  0  0  0  0  0
  162.3967   43.6372  144.1172 C   0  0  0  0  0  0  0  0  0  0  0  0
  162.6929   43.9380  142.9408 O   0  0  0  0  0  0  0  0  0  0  0  0
  163.1194   44.1130  145.1325 N   0  0  0  0  0  0  0  0  0  0  0  0
  162.8388   43.8243  146.4127 C   0  0  0  0  0  0  0  0  0  0  0  0
  163.6406   44.3454  147.3534 N   0  0  0  0  0  0  0  0  0  0  0  0
  161.8030   43.0409  146.7943 N   0  0  0  0  0  0  0  0  0  0  0  0
  160.9784   42.4950  145.8760 C   0  0  0  0  0  0  0  0  0  0  0  0
  1  3  2  6  0  0  0
  1 32  1  0  0  0  0
  1  2  1  0  0  0  0
  1  4  1  0  0  0  0
  4  5  1  0  0  0  0
  6  5  1  1  0  0  0
  7  6  1  0  0  0  0
  8  6  1  0  0  0  0
  8 10  1  0  0  0  0
  8  9  1  6  0  0  0
 10 11  1  1  0  0  0
 12 13  1  1  0  0  0
 12  7  1  0  0  0  0
 12 10  1  0  0  0  0
 14 13  1  0  0  0  0
 15 16  1  0  0  0  0
 15 14  2  0  0  0  0
 16 23  2  0  0  0  0
 17 16  1  0  0  0  0
 17 19  1  0  0  0  0
 18 17  2  0  0  0  0
 19 20  2  0  0  0  0
 20 22  1  0  0  0  0
 20 21  1  0  0  0  0
 23 13  1  0  0  0  0
 23 22  1  0  0  0  0
 24 25  2  6  0  0  0
 24  9  1  0  0  0  0
 24 26  1  0  0  0  0
 27 28  1  0  0  0  0
 27 24  1  0  0  0  0
 29 30  1  6  0  0  0
 29 28  1  0  0  0  0
 31 32  1  1  0  0  0
 31 29  1  0  0  0  0
 33 34  1  1  0  0  0
 33 35  1  0  0  0  0
 33 31  1  0  0  0  0
 35 36  1  6  0  0  0
 35 30  1  0  0  0  0
 36 37  1  0  0  0  0
 38 37  2  0  0  0  0
 39 38  1  0  0  0  0
 40 41  2  0  0  0  0
 40 39  1  0  0  0  0
 42 40  1  0  0  0  0
 43 42  2  0  0  0  0
 43 45  1  0  0  0  0
 44 43  1  0  0  0  0
 45 46  1  0  0  0  0
 46 39  2  0  0  0  0
 46 36  1  0  0  0  0
M  END
>  <CHROM.1>
13.90887672,-43.76523689,159.61785451,45.55925114,146.83262395,2.06442372
-0.53051895,3.06462860

>  <Name>
lig.pdb

>  <RI>
0

>  <Rbt.Current_Directory>
/home/itssahil/PROJECTS/Mol_Feturizer/New_Systems/rnas/4yb0

>  <Rbt.Executable>
rbdock ($Id: //depot/dev/client3/rdock/2013.1/src/exe/rbdock.cxx#4 $)

>  <Rbt.Library>
libRbt.so (2013.1, Build901 2013/11/27)

>  <Rbt.Parameter_File>
/export/apps/rDock/src/rDock_2013.1_src/data/scripts/dock_solv.prm

>  <Rbt.Receptor>
prm/pocket_docking_5.prm

>  <SCORE>
-14.9323

>  <SCORE.INTER>
-15.0803

>  <SCORE.INTER.CONST>
1

>  <SCORE.INTER.POLAR>
0

>  <SCORE.INTER.ROT>
2

>  <SCORE.INTER.SOLV>
13.2651

>  <SCORE.INTER.VDW>
-19.4086

>  <SCORE.INTER.norm>
-0.327833

>  <SCORE.INTRA>
0.148028

>  <SCORE.INTRA.DIHEDRAL>
-0.0167959

>  <SCORE.INTRA.DIHEDRAL.0>
4.74153

>  <SCORE.INTRA.POLAR>
0

>  <SCORE.INTRA.POLAR.0>
0

>  <SCORE.INTRA.REPUL>
0

>  <SCORE.INTRA.REPUL.0>
0

>  <SCORE.INTRA.SOLV>
0.151834

>  <SCORE.INTRA.SOLV.lig_0>
-60.4375

>  <SCORE.INTRA.VDW>
0.0805082

>  <SCORE.INTRA.VDW.0>
-1.83689

>  <SCORE.INTRA.norm>
0.00321799

>  <SCORE.RESTR>
0

>  <SCORE.RESTR.CAVITY>
0

>  <SCORE.RESTR.norm>
0

>  <SCORE.SYSTEM>
0

>  <SCORE.SYSTEM.CONST>
0

>  <SCORE.SYSTEM.DIHEDRAL>
0

>  <SCORE.SYSTEM.SOLV>
0

>  <SCORE.SYSTEM.norm>
0

>  <SCORE.heavy>
46

>  <SCORE.norm>
-0.324615

>  <RMSD>
7.427

$$$$
lig.pdb
 OpenBabel11021811523D
libRbt.so/2013.1/901 2013/11/27
 46 52  0  0  0  0  0  0  0  0999 V2000
  159.2624   44.7153  150.4096 P   0  0  2  0  0  0  0  0  0  0  0  0
  158.8308   45.0754  151.8145 O   0  0  0  0  0  0  0  0  0  0  0  0
  160.7092   44.3381  150.2210 O   0  0  0  0  0  0  0  0  0  0  0  0
  158.9072   45.8892  149.3701 O   0  0  0  0  0  0  0  0  0  0  0  0
  158.0939   46.9937  149.7441 C   0  0  0  0  0  0  0  0  0  0  0  0
  157.6018   47.7207  148.5035 C   0  0  1  0  0  0  0  0  0  0  0  0
  158.3729   48.9042  148.3528 O   0  0  0  0  0  0  0  0  0  0  0  0
  157.7365   46.9549  147.1934 C   0  0  1  0  0  0  0  0  0  0  0  0
  156.4674   46.4540  146.8000 O   0  0  0  0  0  0  0  0  0  0  0  0
  158.1483   48.0209  146.2029 C   0  0  1  0  0  0  0  0  0  0  0  0
  156.9841   48.6045  145.6145 O   0  0  0  0  0  0  0  0  0  0  0  0
  158.8101   49.0953  147.0160 C   0  0  2  0  0  0  0  0  0  0  0  0
  160.2795   48.9076  146.9666 N   0  0  0  0  0  0  0  0  0  0  0  0
  161.0160   48.2466  147.8766 C   0  0  0  0  0  0  0  0  0  0  0  0
  162.3280   48.2748  147.5404 N   0  0  0  0  0  0  0  0  0  0  0  0
  162.4492   48.9657  146.3929 C   0  0  0  0  0  0  0  0  0  0  0  0
  163.5579   49.3654  145.4946 C   0  0  0  0  0  0  0  0  0  0  0  0
  164.7395   49.0426  145.7658 O   0  0  0  0  0  0  0  0  0  0  0  0
  163.2511   50.0784  144.3973 N   0  0  0  0  0  0  0  0  0  0  0  0
  161.9814   50.4237  144.1115 C   0  0  0  0  0  0  0  0  0  0  0  0
  161.7312   51.1375  142.9911 N   0  0  0  0  0  0  0  0  0  0  0  0
  160.9245   50.0923  144.8872 N   0  0  0  0  0  0  0  0  0  0  0  0
  161.0923   49.3777  146.0204 C   0  0  0  0  0  0  0  0  0  0  0  0
  156.2671   45.3674  145.6103 P   0  0  2  0  0  0  0  0  0  0  0  0
  157.0324   45.8210  144.3909 O   0  0  0  0  0  0  0  0  0  0  0  0
  154.7766   45.0935  145.5383 O   0  0  0  0  0  0  0  0  0  0  0  0
  157.0220   44.0664  146.1992 O   0  0  0  0  0  0  0  0  0  0  0  0
  156.3671   43.2284  147.1506 C   0  0  0  0  0  0  0  0  0  0  0  0
  157.3352   42.3432  147.9416 C   0  0  1  0  0  0  0  0  0  0  0  0
  157.8153   41.2952  147.0966 O   0  0  0  0  0  0  0  0  0  0  0  0
  158.5635   43.0618  148.4957 C   0  0  1  0  0  0  0  0  0  0  0  0
  158.3758   43.4939  149.8426 O   0  0  0  0  0  0  0  0  0  0  0  0
  159.6350   41.9920  148.3973 C   0  0  1  0  0  0  0  0  0  0  0  0
  159.6363   41.1645  149.5640 O   0  0  0  0  0  0  0  0  0  0  0  0
  159.2292   41.1236  147.2249 C   0  0  2  0  0  0  0  0  0  0  0  0
  159.8845   41.6203  145.9896 N   0  0  0  0  0  0  0  0  0  0  0  0
  159.4919   41.3510  144.7286 C   0  0  0  0  0  0  0  0  0  0  0  0
  160.2879   41.9625  143.8078 N   0  0  0  0  0  0  0  0  0  0  0  0
  161.2184   42.6531  144.4857 C   0  0  0  0  0  0  0  0  0  0  0  0
  162.3778   43.5137  144.1382 C   0  0  0  0  0  0  0  0  0  0  0  0
  162.6865   43.7751  142.9556 O   0  0  0  0  0  0  0  0  0  0  0  0
  163.0826   44.0327  145.1449 N   0  0  0  0  0  0  0  0  0  0  0  0
  162.7879   43.7874  146.4310 C   0  0  0  0  0  0  0  0  0  0  0  0
  163.5723   44.3498  147.3625 N   0  0  0  0  0  0  0  0  0  0  0  0
  161.7546   43.0079  146.8272 N   0  0  0  0  0  0  0  0  0  0  0  0
  160.9474   42.4213  145.9187 C   0  0  0  0  0  0  0  0  0  0  0  0
  1  3  2  6  0  0  0
  1 32  1  0  0  0  0
  1  2  1  0  0  0  0
  1  4  1  0  0  0  0
  4  5  1  0  0  0  0
  6  5  1  1  0  0  0
  7  6  1  0  0  0  0
  8  6  1  0  0  0  0
  8 10  1  0  0  0  0
  8  9  1  6  0  0  0
 10 11  1  1  0  0  0
 12 13  1  1  0  0  0
 12  7  1  0  0  0  0
 12 10  1  0  0  0  0
 14 13  1  0  0  0  0
 15 16  1  0  0  0  0
 15 14  2  0  0  0  0
 16 23  2  0  0  0  0
 17 16  1  0  0  0  0
 17 19  1  0  0  0  0
 18 17  2  0  0  0  0
 19 20  2  0  0  0  0
 20 22  1  0  0  0  0
 20 21  1  0  0  0  0
 23 13  1  0  0  0  0
 23 22  1  0  0  0  0
 24 25  2  6  0  0  0
 24  9  1  0  0  0  0
 24 26  1  0  0  0  0
 27 28  1  0  0  0  0
 27 24  1  0  0  0  0
 29 30  1  6  0  0  0
 29 28  1  0  0  0  0
 31 32  1  1  0  0  0
 31 29  1  0  0  0  0
 33 34  1  1  0  0  0
 33 35  1  0  0  0  0
 33 31  1  0  0  0  0
 35 36  1  6  0  0  0
 35 30  1  0  0  0  0
 36 37  1  0  0  0  0
 38 37  2  0  0  0  0
 39 38  1  0  0  0  0
 40 41  2  0  0  0  0
 40 39  1  0  0  0  0
 42 40  1  0  0  0  0
 43 42  2  0  0  0  0
 43 45  1  0  0  0  0
 44 43  1  0  0  0  0
 45 46  1  0  0  0  0
 46 39  2  0  0  0  0
 46 36  1  0  0  0  0
M  END
>  <CHROM.1>
20.48874114,-45.85903167,159.67115592,45.54029203,146.83048801,2.07244988
-0.51782740,3.07173863

>  <Name>
lig.pdb

>  <RI>
0

>  <Rbt.Current_Directory>
/home/itssahil/PROJECTS/Mol_Feturizer/New_Systems/rnas/4yb0

>  <Rbt.Executable>
rbdock ($Id: //depot/dev/client3/rdock/2013.1/src/exe/rbdock.cxx#4 $)

>  <Rbt.Library>
libRbt.so (2013.1, Build901 2013/11/27)

>  <Rbt.Parameter_File>
/export/apps/rDock/src/rDock_2013.1_src/data/scripts/dock_solv.prm

>  <Rbt.Receptor>
prm/pocket_docking_6.prm

>  <SCORE>
-15.0369

>  <SCORE.INTER>
-15.1489

>  <SCORE.INTER.CONST>
1

>  <SCORE.INTER.POLAR>
0

>  <SCORE.INTER.ROT>
2

>  <SCORE.INTER.SOLV>
13.3208

>  <SCORE.INTER.VDW>
-19.4729

>  <SCORE.INTER.norm>
-0.329325

>  <SCORE.INTRA>
0.111044

>  <SCORE.INTRA.DIHEDRAL>
-0.0215765

>  <SCORE.INTRA.DIHEDRAL.0>
4.74153

>  <SCORE.INTRA.POLAR>
0

>  <SCORE.INTRA.POLAR.0>
0

>  <SCORE.INTRA.REPUL>
0

>  <SCORE.INTRA.REPUL.0>
0

>  <SCORE.INTRA.SOLV>
0.235361

>  <SCORE.INTRA.SOLV.lig_0>
-60.4375

>  <SCORE.INTRA.VDW>
0.00415153

>  <SCORE.INTRA.VDW.0>
-1.83689

>  <SCORE.INTRA.norm>
0.002414

>  <SCORE.RESTR>
0.000969941

>  <SCORE.RESTR.CAVITY>
0.000969941

>  <SCORE.RESTR.norm>
2.10857e-05

>  <SCORE.SYSTEM>
0

>  <SCORE.SYSTEM.CONST>
0

>  <SCORE.SYSTEM.DIHEDRAL>
0

>  <SCORE.SYSTEM.SOLV>
0

>  <SCORE.SYSTEM.norm>
0

>  <SCORE.heavy>
46

>  <SCORE.norm>
-0.32689

>  <RMSD>
7.475

$$$$
lig.pdb
 OpenBabel11021811523D
libRbt.so/2013.1/901 2013/11/27
 46 52  0  0  0  0  0  0  0  0999 V2000
  159.3374   44.6812  150.3766 P   0  0  2  0  0  0  0  0  0  0  0  0
  158.9264   45.0132  151.7944 O   0  0  0  0  0  0  0  0  0  0  0  0
  160.7793   44.2996  150.1608 O   0  0  0  0  0  0  0  0  0  0  0  0
  158.9762   45.8797  149.3675 O   0  0  0  0  0  0  0  0  0  0  0  0
  158.1748   46.9806  149.7760 C   0  0  0  0  0  0  0  0  0  0  0  0
  157.6713   47.7374  148.5580 C   0  0  1  0  0  0  0  0  0  0  0  0
  158.4478   48.9193  148.4230 O   0  0  0  0  0  0  0  0  0  0  0  0
  157.7842   46.9996  147.2300 C   0  0  1  0  0  0  0  0  0  0  0  0
  156.5069   46.5150  146.8424 O   0  0  0  0  0  0  0  0  0  0  0  0
  158.1898   48.0845  146.2576 C   0  0  1  0  0  0  0  0  0  0  0  0
  157.0218   48.6877  145.6973 O   0  0  0  0  0  0  0  0  0  0  0  0
  158.8689   49.1368  147.0851 C   0  0  2  0  0  0  0  0  0  0  0  0
  160.3363   48.9415  147.0123 N   0  0  0  0  0  0  0  0  0  0  0  0
  161.0790   48.2488  147.8932 C   0  0  0  0  0  0  0  0  0  0  0  0
  162.3871   48.2787  147.5422 N   0  0  0  0  0  0  0  0  0  0  0  0
  162.4993   49.0030  146.4145 C   0  0  0  0  0  0  0  0  0  0  0  0
  163.6000   49.4224  145.5153 C   0  0  0  0  0  0  0  0  0  0  0  0
  164.7825   49.0842  145.7624 O   0  0  0  0  0  0  0  0  0  0  0  0
  163.2849   50.1699  144.4436 N   0  0  0  0  0  0  0  0  0  0  0  0
  162.0143   50.5316  144.1836 C   0  0  0  0  0  0  0  0  0  0  0  0
  161.7555   51.2802  143.0881 N   0  0  0  0  0  0  0  0  0  0  0  0
  160.9644   50.1838  144.9617 N   0  0  0  0  0  0  0  0  0  0  0  0
  161.1408   49.4345  146.0710 C   0  0  0  0  0  0  0  0  0  0  0  0
  156.2844   45.4559  145.6321 P   0  0  2  0  0  0  0  0  0  0  0  0
  157.0366   45.9313  144.4129 O   0  0  0  0  0  0  0  0  0  0  0  0
  154.7914   45.1926  145.5738 O   0  0  0  0  0  0  0  0  0  0  0  0
  157.0387   44.1378  146.1827 O   0  0  0  0  0  0  0  0  0  0  0  0
  156.3909   43.2833  147.1242 C   0  0  0  0  0  0  0  0  0  0  0  0
  157.3636   42.3751  147.8830 C   0  0  1  0  0  0  0  0  0  0  0  0
  157.8260   41.3430  147.0092 O   0  0  0  0  0  0  0  0  0  0  0  0
  158.6034   43.0741  148.4364 C   0  0  1  0  0  0  0  0  0  0  0  0
  158.4359   43.4779  149.7948 O   0  0  0  0  0  0  0  0  0  0  0  0
  159.6667   42.0003  148.3008 C   0  0  1  0  0  0  0  0  0  0  0  0
  159.6780   41.1476  149.4491 O   0  0  0  0  0  0  0  0  0  0  0  0
  159.2404   41.1601  147.1152 C   0  0  2  0  0  0  0  0  0  0  0  0
  159.8827   41.6797  145.8825 N   0  0  0  0  0  0  0  0  0  0  0  0
  159.4624   41.4540  144.6219 C   0  0  0  0  0  0  0  0  0  0  0  0
  160.2532   42.0766  143.7042 N   0  0  0  0  0  0  0  0  0  0  0  0
  161.2088   42.7301  144.3840 C   0  0  0  0  0  0  0  0  0  0  0  0
  162.3780   43.5785  144.0395 C   0  0  0  0  0  0  0  0  0  0  0  0
  162.6704   43.8679  142.8593 O   0  0  0  0  0  0  0  0  0  0  0  0
  163.1107   44.0552  145.0473 N   0  0  0  0  0  0  0  0  0  0  0  0
  162.8346   43.7788  146.3311 C   0  0  0  0  0  0  0  0  0  0  0  0
  163.6462   44.2995  147.2635 N   0  0  0  0  0  0  0  0  0  0  0  0
  161.7939   43.0077  146.7243 N   0  0  0  0  0  0  0  0  0  0  0  0
  160.9593   42.4624  145.8146 C   0  0  0  0  0  0  0  0  0  0  0  0
  1  3  2  6  0  0  0
  1 32  1  0  0  0  0
  1  2  1  0  0  0  0
  1  4  1  0  0  0  0
  4  5  1  0  0  0  0
  6  5  1  1  0  0  0
  7  6  1  0  0  0  0
  8  6  1  0  0  0  0
  8 10  1  0  0  0  0
  8  9  1  6  0  0  0
 10 11  1  1  0  0  0
 12 13  1  1  0  0  0
 12  7  1  0  0  0  0
 12 10  1  0  0  0  0
 14 13  1  0  0  0  0
 15 16  1  0  0  0  0
 15 14  2  0  0  0  0
 16 23  2  0  0  0  0
 17 16  1  0  0  0  0
 17 19  1  0  0  0  0
 18 17  2  0  0  0  0
 19 20  2  0  0  0  0
 20 22  1  0  0  0  0
 20 21  1  0  0  0  0
 23 13  1  0  0  0  0
 23 22  1  0  0  0  0
 24 25  2  6  0  0  0
 24  9  1  0  0  0  0
 24 26  1  0  0  0  0
 27 28  1  0  0  0  0
 27 24  1  0  0  0  0
 29 30  1  6  0  0  0
 29 28  1  0  0  0  0
 31 32  1  1  0  0  0
 31 29  1  0  0  0  0
 33 34  1  1  0  0  0
 33 35  1  0  0  0  0
 33 31  1  0  0  0  0
 35 36  1  6  0  0  0
 35 30  1  0  0  0  0
 36 37  1  0  0  0  0
 38 37  2  0  0  0  0
 39 38  1  0  0  0  0
 40 41  2  0  0  0  0
 40 39  1  0  0  0  0
 42 40  1  0  0  0  0
 43 42  2  0  0  0  0
 43 45  1  0  0  0  0
 44 43  1  0  0  0  0
 45 46  1  0  0  0  0
 46 39  2  0  0  0  0
 46 36  1  0  0  0  0
M  END
>  <CHROM.1>
20.96059388,-44.98118151,159.70814901,45.57993073,146.81239802,2.07404388
-0.52558651,3.09443769

>  <Name>
lig.pdb

>  <RI>
0

>  <Rbt.Current_Directory>
/home/itssahil/PROJECTS/Mol_Feturizer/New_Systems/rnas/4yb0

>  <Rbt.Executable>
rbdock ($Id: //depot/dev/client3/rdock/2013.1/src/exe/rbdock.cxx#4 $)

>  <Rbt.Library>
libRbt.so (2013.1, Build901 2013/11/27)

>  <Rbt.Parameter_File>
/export/apps/rDock/src/rDock_2013.1_src/data/scripts/dock_solv.prm

>  <Rbt.Receptor>
prm/pocket_docking_6.prm

>  <SCORE>
-14.995

>  <SCORE.INTER>
-15.1031

>  <SCORE.INTER.CONST>
1

>  <SCORE.INTER.POLAR>
0

>  <SCORE.INTER.ROT>
2

>  <SCORE.INTER.SOLV>
13.071

>  <SCORE.INTER.VDW>
-19.3591

>  <SCORE.INTER.norm>
-0.328329

>  <SCORE.INTRA>
0.105298

>  <SCORE.INTRA.DIHEDRAL>
-0.0241294

>  <SCORE.INTRA.DIHEDRAL.0>
4.74153

>  <SCORE.INTRA.POLAR>
0

>  <SCORE.INTRA.POLAR.0>
0

>  <SCORE.INTRA.REPUL>
0

>  <SCORE.INTRA.REPUL.0>
0

>  <SCORE.INTRA.SOLV>
0.204119

>  <SCORE.INTRA.SOLV.lig_0>
-60.4375

>  <SCORE.INTRA.VDW>
0.0153032

>  <SCORE.INTRA.VDW.0>
-1.83689

>  <SCORE.INTRA.norm>
0.00228909

>  <SCORE.RESTR>
0.00285875

>  <SCORE.RESTR.CAVITY>
0.00285875

>  <SCORE.RESTR.norm>
6.21468e-05

>  <SCORE.SYSTEM>
0

>  <SCORE.SYSTEM.CONST>
0

>  <SCORE.SYSTEM.DIHEDRAL>
0

>  <SCORE.SYSTEM.SOLV>
0

>  <SCORE.SYSTEM.norm>
0

>  <SCORE.heavy>
46

>  <SCORE.norm>
-0.325978

>  <RMSD>
7.485

$$$$
lig.pdb
 OpenBabel11021811523D
libRbt.so/2013.1/901 2013/11/27
 46 52  0  0  0  0  0  0  0  0999 V2000
  155.9216   46.4733  144.1865 P   0  0  2  0  0  0  0  0  0  0  0  0
  154.5648   46.0737  143.6488 O   0  0  0  0  0  0  0  0  0  0  0  0
  157.0933   46.3185  143.2515 O   0  0  0  0  0  0  0  0  0  0  0  0
  156.2605   45.6971  145.5531 O   0  0  0  0  0  0  0  0  0  0  0  0
  155.2802   44.9231  146.2322 C   0  0  0  0  0  0  0  0  0  0  0  0
  155.7354   44.6392  147.6541 C   0  0  1  0  0  0  0  0  0  0  0  0
  156.1965   43.2966  147.7081 O   0  0  0  0  0  0  0  0  0  0  0  0
  156.8810   45.5038  148.1649 C   0  0  1  0  0  0  0  0  0  0  0  0
  156.3757   46.4923  149.0504 O   0  0  0  0  0  0  0  0  0  0  0  0
  157.7203   44.5371  148.9698 C   0  0  1  0  0  0  0  0  0  0  0  0
  157.2704   44.5252  150.3261 O   0  0  0  0  0  0  0  0  0  0  0  0
  157.4287   43.1782  148.4026 C   0  0  2  0  0  0  0  0  0  0  0  0
  158.4882   42.8189  147.4304 N   0  0  0  0  0  0  0  0  0  0  0  0
  158.3883   41.8787  146.4747 C   0  0  0  0  0  0  0  0  0  0  0  0
  159.5410   41.7917  145.7684 N   0  0  0  0  0  0  0  0  0  0  0  0
  160.4068   42.6893  146.2719 C   0  0  0  0  0  0  0  0  0  0  0  0
  161.7972   43.1146  145.9857 C   0  0  0  0  0  0  0  0  0  0  0  0
  162.4479   42.5696  145.0619 O   0  0  0  0  0  0  0  0  0  0  0  0
  162.3245   44.0899  146.7454 N   0  0  0  0  0  0  0  0  0  0  0  0
  161.6224   44.6707  147.7368 C   0  0  0  0  0  0  0  0  0  0  0  0
  162.2023   45.6503  148.4657 N   0  0  0  0  0  0  0  0  0  0  0  0
  160.3517   44.3307  148.0506 N   0  0  0  0  0  0  0  0  0  0  0  0
  159.7028   43.3640  147.3669 C   0  0  0  0  0  0  0  0  0  0  0  0
  157.2535   47.7541  149.5731 P   0  0  2  0  0  0  0  0  0  0  0  0
  158.5858   47.2558  150.0781 O   0  0  0  0  0  0  0  0  0  0  0  0
  156.3336   48.5636  150.4678 O   0  0  0  0  0  0  0  0  0  0  0  0
  157.5288   48.5732  148.2083 O   0  0  0  0  0  0  0  0  0  0  0  0
  156.5197   49.4266  147.6699 C   0  0  0  0  0  0  0  0  0  0  0  0
  156.7341   49.7538  146.1888 C   0  0  1  0  0  0  0  0  0  0  0  0
  157.8196   50.6748  146.0606 O   0  0  0  0  0  0  0  0  0  0  0  0
  157.0646   48.5550  145.3026 C   0  0  1  0  0  0  0  0  0  0  0  0
  155.9046   48.0094  144.6757 O   0  0  0  0  0  0  0  0  0  0  0  0
  158.0164   49.1577  144.2863 C   0  0  1  0  0  0  0  0  0  0  0  0
  157.2960   49.7257  143.1889 O   0  0  0  0  0  0  0  0  0  0  0  0
  158.7110   50.2924  145.0098 C   0  0  2  0  0  0  0  0  0  0  0  0
  159.9740   49.7975  145.6116 N   0  0  0  0  0  0  0  0  0  0  0  0
  160.5946   50.3279  146.6840 C   0  0  0  0  0  0  0  0  0  0  0  0
  161.7278   49.6435  147.0045 N   0  0  0  0  0  0  0  0  0  0  0  0
  161.8449   48.6377  146.1231 C   0  0  0  0  0  0  0  0  0  0  0  0
  162.8134   47.5397  145.8739 C   0  0  0  0  0  0  0  0  0  0  0  0
  163.8197   47.3588  146.5928 O   0  0  0  0  0  0  0  0  0  0  0  0
  162.5624   46.7174  144.8538 N   0  0  0  0  0  0  0  0  0  0  0  0
  161.4930   46.8655  144.0568 C   0  0  0  0  0  0  0  0  0  0  0  0
  161.3456   45.9895  143.0518 N   0  0  0  0  0  0  0  0  0  0  0  0
  160.5715   47.8446  144.2137 N   0  0  0  0  0  0  0  0  0  0  0  0
  160.6895   48.7472  145.2101 C   0  0  0  0  0  0  0  0  0  0  0  0
  1  3  2  6  0  0  0
  1 32  1  0  0  0  0
  1  2  1  0  0  0  0
  1  4  1  0  0  0  0
  4  5  1  0  0  0  0
  6  5  1  6  0  0  0
  7  6  1  0  0  0  0
  8  6  1  0  0  0  0
  8 10  1  0  0  0  0
  8  9  1  1  0  0  0
 10 11  1  1  0  0  0
 12 13  1  6  0  0  0
 12  7  1  0  0  0  0
 12 10  1  0  0  0  0
 14 13  1  0  0  0  0
 15 16  1  0  0  0  0
 15 14  2  0  0  0  0
 16 23  2  0  0  0  0
 17 16  1  0  0  0  0
 17 19  1  0  0  0  0
 18 17  2  0  0  0  0
 19 20  2  0  0  0  0
 20 22  1  0  0  0  0
 20 21  1  0  0  0  0
 23 13  1  0  0  0  0
 23 22  1  0  0  0  0
 24 25  2  1  0  0  0
 24  9  1  0  0  0  0
 24 26  1  0  0  0  0
 27 28  1  0  0  0  0
 27 24  1  0  0  0  0
 29 30  1  1  0  0  0
 29 28  1  0  0  0  0
 31 32  1  6  0  0  0
 31 29  1  0  0  0  0
 33 34  1  6  0  0  0
 33 35  1  0  0  0  0
 33 31  1  0  0  0  0
 35 36  1  1  0  0  0
 35 30  1  0  0  0  0
 36 37  1  0  0  0  0
 38 37  2  0  0  0  0
 39 38  1  0  0  0  0
 40 41  2  0  0  0  0
 40 39  1  0  0  0  0
 42 40  1  0  0  0  0
 43 42  2  0  0  0  0
 43 45  1  0  0  0  0
 44 43  1  0  0  0  0
 45 46  1  0  0  0  0
 46 39  2  0  0  0  0
 46 36  1  0  0  0  0
M  END
>  <CHROM.1>
-45.43205624,-39.84368326,158.69116792,46.49224868,146.52373409,2.25855930
0.26545498,-0.33863569

>  <Name>
lig.pdb

>  <RI>
0

>  <Rbt.Current_Directory>
/home/itssahil/PROJECTS/Mol_Feturizer/New_Systems/rnas/4yb0

>  <Rbt.Executable>
rbdock ($Id: //depot/dev/client3/rdock/2013.1/src/exe/rbdock.cxx#4 $)

>  <Rbt.Library>
libRbt.so (2013.1, Build901 2013/11/27)

>  <Rbt.Parameter_File>
/export/apps/rDock/src/rDock_2013.1_src/data/scripts/dock_solv.prm

>  <Rbt.Receptor>
prm/pocket_docking_5.prm

>  <SCORE>
-16.6994

>  <SCORE.INTER>
-17.2603

>  <SCORE.INTER.CONST>
1

>  <SCORE.INTER.POLAR>
0

>  <SCORE.INTER.ROT>
2

>  <SCORE.INTER.SOLV>
13.7765

>  <SCORE.INTER.VDW>
-21.0323

>  <SCORE.INTER.norm>
-0.375223

>  <SCORE.INTRA>
0.52802

>  <SCORE.INTRA.DIHEDRAL>
0.0392295

>  <SCORE.INTRA.DIHEDRAL.0>
4.74153

>  <SCORE.INTRA.POLAR>
0

>  <SCORE.INTRA.POLAR.0>
0

>  <SCORE.INTRA.REPUL>
0

>  <SCORE.INTRA.REPUL.0>
0

>  <SCORE.INTRA.SOLV>
2.54108

>  <SCORE.INTRA.SOLV.lig_0>
-60.4375

>  <SCORE.INTRA.VDW>
-0.762136

>  <SCORE.INTRA.VDW.0>
-1.83689

>  <SCORE.INTRA.norm>
0.0114787

>  <SCORE.RESTR>
0.0328398

>  <SCORE.RESTR.CAVITY>
0.0328398

>  <SCORE.RESTR.norm>
0.000713908

>  <SCORE.SYSTEM>
0

>  <SCORE.SYSTEM.CONST>
0

>  <SCORE.SYSTEM.DIHEDRAL>
0

>  <SCORE.SYSTEM.SOLV>
0

>  <SCORE.SYSTEM.norm>
0

>  <SCORE.heavy>
46

>  <SCORE.norm>
-0.363031

>  <RMSD>
7.687

$$$$
lig.pdb
 OpenBabel11021811523D
libRbt.so/2013.1/901 2013/11/27
 46 52  0  0  0  0  0  0  0  0999 V2000
  158.6450   48.3652  149.9344 P   0  0  2  0  0  0  0  0  0  0  0  0
  158.2840   49.6425  150.6609 O   0  0  0  0  0  0  0  0  0  0  0  0
  160.0957   47.9579  149.9599 O   0  0  0  0  0  0  0  0  0  0  0  0
  158.1595   48.4071  148.4022 O   0  0  0  0  0  0  0  0  0  0  0  0
  157.3112   49.4403  147.9183 C   0  0  0  0  0  0  0  0  0  0  0  0
  156.7016   49.0317  146.5874 C   0  0  1  0  0  0  0  0  0  0  0  0
  157.3942   49.7213  145.5565 O   0  0  0  0  0  0  0  0  0  0  0  0
  156.7954   47.5500  146.2461 C   0  0  1  0  0  0  0  0  0  0  0  0
  155.5338   46.9314  146.4516 O   0  0  0  0  0  0  0  0  0  0  0  0
  157.0833   47.5479  144.7615 C   0  0  1  0  0  0  0  0  0  0  0  0
  155.8533   47.5247  144.0344 O   0  0  0  0  0  0  0  0  0  0  0  0
  157.7344   48.8694  144.4734 C   0  0  2  0  0  0  0  0  0  0  0  0
  159.2059   48.6929  144.4532 N   0  0  0  0  0  0  0  0  0  0  0  0
  159.8865   47.8841  143.6226 C   0  0  0  0  0  0  0  0  0  0  0  0
  161.2154   47.9464  143.8785 N   0  0  0  0  0  0  0  0  0  0  0  0
  161.4043   48.8093  144.8926 C   0  0  0  0  0  0  0  0  0  0  0  0
  162.5641   49.3343  145.6512 C   0  0  0  0  0  0  0  0  0  0  0  0
  163.7260   48.9480  145.3778 O   0  0  0  0  0  0  0  0  0  0  0  0
  162.3238   50.2241  146.6294 N   0  0  0  0  0  0  0  0  0  0  0  0
  161.0747   50.6343  146.9199 C   0  0  0  0  0  0  0  0  0  0  0  0
  160.8930   51.5350  147.9114 N   0  0  0  0  0  0  0  0  0  0  0  0
  159.9739   50.1958  146.2683 N   0  0  0  0  0  0  0  0  0  0  0  0
  160.0731   49.2987  145.2641 C   0  0  0  0  0  0  0  0  0  0  0  0
  155.3194   45.3221  146.4543 P   0  0  2  0  0  0  0  0  0  0  0  0
  155.9791   44.7321  145.2316 O   0  0  0  0  0  0  0  0  0  0  0  0
  153.8449   45.0954  146.7308 O   0  0  0  0  0  0  0  0  0  0  0  0
  156.1816   44.8603  147.7399 O   0  0  0  0  0  0  0  0  0  0  0  0
  155.6362   44.9913  149.0520 C   0  0  0  0  0  0  0  0  0  0  0  0
  156.7005   44.9589  150.1533 C   0  0  1  0  0  0  0  0  0  0  0  0
  157.1837   43.6223  150.3044 O   0  0  0  0  0  0  0  0  0  0  0  0
  157.9194   45.8436  149.9014 C   0  0  1  0  0  0  0  0  0  0  0  0
  157.7938   47.1255  150.5156 O   0  0  0  0  0  0  0  0  0  0  0  0
  159.0405   45.0337  150.5253 C   0  0  1  0  0  0  0  0  0  0  0  0
  159.1621   45.3238  151.9206 O   0  0  0  0  0  0  0  0  0  0  0  0
  158.6103   43.5873  150.3979 C   0  0  2  0  0  0  0  0  0  0  0  0
  159.1571   43.0160  149.1421 N   0  0  0  0  0  0  0  0  0  0  0  0
  158.7964   41.8402  148.5910 C   0  0  0  0  0  0  0  0  0  0  0  0
  159.4675   41.5964  147.4310 N   0  0  0  0  0  0  0  0  0  0  0  0
  160.2809   42.6428  147.2173 C   0  0  0  0  0  0  0  0  0  0  0  0
  161.2774   43.0316  146.1870 C   0  0  0  0  0  0  0  0  0  0  0  0
  161.5220   42.3188  145.1899 O   0  0  0  0  0  0  0  0  0  0  0  0
  161.9012   44.2003  146.3443 N   0  0  0  0  0  0  0  0  0  0  0  0
  161.6693   45.0040  147.3936 C   0  0  0  0  0  0  0  0  0  0  0  0
  162.3634   46.1500  147.4591 N   0  0  0  0  0  0  0  0  0  0  0  0
  160.7845   44.7161  148.3766 N   0  0  0  0  0  0  0  0  0  0  0  0
  160.0722   43.5702  148.3473 C   0  0  0  0  0  0  0  0  0  0  0  0
  1  3  2  1  0  0  0
  1 32  1  0  0  0  0
  1  2  1  0  0  0  0
  1  4  1  0  0  0  0
  4  5  1  0  0  0  0
  6  5  1  1  0  0  0
  7  6  1  0  0  0  0
  8  6  1  0  0  0  0
  8 10  1  0  0  0  0
  8  9  1  6  0  0  0
 10 11  1  6  0  0  0
 12 13  1  1  0  0  0
 12  7  1  0  0  0  0
 12 10  1  0  0  0  0
 14 13  1  0  0  0  0
 15 16  1  0  0  0  0
 15 14  2  0  0  0  0
 16 23  2  0  0  0  0
 17 16  1  0  0  0  0
 17 19  1  0  0  0  0
 18 17  2  0  0  0  0
 19 20  2  0  0  0  0
 20 22  1  0  0  0  0
 20 21  1  0  0  0  0
 23 13  1  0  0  0  0
 23 22  1  0  0  0  0
 24 25  2  6  0  0  0
 24  9  1  0  0  0  0
 24 26  1  0  0  0  0
 27 28  1  0  0  0  0
 27 24  1  0  0  0  0
 29 30  1  6  0  0  0
 29 28  1  0  0  0  0
 31 32  1  1  0  0  0
 31 29  1  0  0  0  0
 33 34  1  1  0  0  0
 33 35  1  0  0  0  0
 33 31  1  0  0  0  0
 35 36  1  6  0  0  0
 35 30  1  0  0  0  0
 36 37  1  0  0  0  0
 38 37  2  0  0  0  0
 39 38  1  0  0  0  0
 40 41  2  0  0  0  0
 40 39  1  0  0  0  0
 42 40  1  0  0  0  0
 43 42  2  0  0  0  0
 43 45  1  0  0  0  0
 44 43  1  0  0  0  0
 45 46  1  0  0  0  0
 46 39  2  0  0  0  0
 46 36  1  0  0  0  0
M  END
>  <CHROM.1>
175.42164555,-53.26811643,158.79293465,46.60781342,147.39138835,1.16457981
0.12553856,-0.41543989

>  <Name>
lig.pdb

>  <RI>
0

>  <Rbt.Current_Directory>
/home/itssahil/PROJECTS/Mol_Feturizer/New_Systems/rnas/4yb0

>  <Rbt.Executable>
rbdock ($Id: //depot/dev/client3/rdock/2013.1/src/exe/rbdock.cxx#4 $)

>  <Rbt.Library>
libRbt.so (2013.1, Build901 2013/11/27)

>  <Rbt.Parameter_File>
/export/apps/rDock/src/rDock_2013.1_src/data/scripts/dock_solv.prm

>  <Rbt.Receptor>
prm/pocket_docking_8.prm

>  <SCORE>
-12.9028

>  <SCORE.INTER>
-12.7628

>  <SCORE.INTER.CONST>
1

>  <SCORE.INTER.POLAR>
0

>  <SCORE.INTER.ROT>
2

>  <SCORE.INTER.SOLV>
11.4477

>  <SCORE.INTER.VDW>
-17.2578

>  <SCORE.INTER.norm>
-0.277453

>  <SCORE.INTRA>
-0.139934

>  <SCORE.INTRA.DIHEDRAL>
0.0291707

>  <SCORE.INTRA.DIHEDRAL.0>
4.74153

>  <SCORE.INTRA.POLAR>
0

>  <SCORE.INTRA.POLAR.0>
0

>  <SCORE.INTRA.REPUL>
0

>  <SCORE.INTRA.REPUL.0>
0

>  <SCORE.INTRA.SOLV>
1.85919

>  <SCORE.INTRA.SOLV.lig_0>
-60.4375

>  <SCORE.INTRA.VDW>
-1.08412

>  <SCORE.INTRA.VDW.0>
-1.83689

>  <SCORE.INTRA.norm>
-0.00304204

>  <SCORE.RESTR>
0

>  <SCORE.RESTR.CAVITY>
0

>  <SCORE.RESTR.norm>
0

>  <SCORE.SYSTEM>
0

>  <SCORE.SYSTEM.CONST>
0

>  <SCORE.SYSTEM.DIHEDRAL>
0

>  <SCORE.SYSTEM.SOLV>
0

>  <SCORE.SYSTEM.norm>
0

>  <SCORE.heavy>
46

>  <SCORE.norm>
-0.280495

>  <RMSD>
7.739

$$$$
lig.pdb
 OpenBabel11021811523D
libRbt.so/2013.1/901 2013/11/27
 46 52  0  0  0  0  0  0  0  0999 V2000
  157.0170   47.6733  149.6623 P   0  0  2  0  0  0  0  0  0  0  0  0
  156.1630   48.5755  150.5262 O   0  0  0  0  0  0  0  0  0  0  0  0
  158.3268   47.2145  150.2496 O   0  0  0  0  0  0  0  0  0  0  0  0
  157.3128   48.3436  148.2311 O   0  0  0  0  0  0  0  0  0  0  0  0
  156.6453   49.5264  147.8110 C   0  0  0  0  0  0  0  0  0  0  0  0
  156.8081   49.7103  146.3112 C   0  0  1  0  0  0  0  0  0  0  0  0
  157.7892   50.7147  146.0955 O   0  0  0  0  0  0  0  0  0  0  0  0
  157.2800   48.4821  145.5434 C   0  0  1  0  0  0  0  0  0  0  0  0
  156.1839   47.8991  144.8540 O   0  0  0  0  0  0  0  0  0  0  0  0
  158.2312   49.0529  144.5158 C   0  0  1  0  0  0  0  0  0  0  0  0
  157.5110   49.3834  143.3266 O   0  0  0  0  0  0  0  0  0  0  0  0
  158.7278   50.3448  145.0970 C   0  0  2  0  0  0  0  0  0  0  0  0
  160.0415   50.1147  145.7435 N   0  0  0  0  0  0  0  0  0  0  0  0
  161.0227   51.0250  145.8697 C   0  0  0  0  0  0  0  0  0  0  0  0
  162.0963   50.4858  146.4957 N   0  0  0  0  0  0  0  0  0  0  0  0
  161.8109   49.2031  146.7819 C   0  0  0  0  0  0  0  0  0  0  0  0
  162.5063   48.0711  147.4385 C   0  0  0  0  0  0  0  0  0  0  0  0
  163.6714   48.2154  147.8809 O   0  0  0  0  0  0  0  0  0  0  0  0
  161.8497   46.9025  147.5364 N   0  0  0  0  0  0  0  0  0  0  0  0
  160.5998   46.7524  147.0586 C   0  0  0  0  0  0  0  0  0  0  0  0
  159.9860   45.5551  147.1893 N   0  0  0  0  0  0  0  0  0  0  0  0
  159.9090   47.7425  146.4493 N   0  0  0  0  0  0  0  0  0  0  0  0
  160.4521   48.9675  146.2838 C   0  0  0  0  0  0  0  0  0  0  0  0
  156.2458   46.4336  144.1579 P   0  0  2  0  0  0  0  0  0  0  0  0
  157.4870   46.3425  143.3039 O   0  0  0  0  0  0  0  0  0  0  0  0
  154.8708   46.1929  143.5634 O   0  0  0  0  0  0  0  0  0  0  0  0
  156.4583   45.4565  145.4265 O   0  0  0  0  0  0  0  0  0  0  0  0
  155.3451   45.0855  146.2386 C   0  0  0  0  0  0  0  0  0  0  0  0
  155.7536   44.5645  147.6200 C   0  0  1  0  0  0  0  0  0  0  0  0
  156.3084   43.2542  147.4859 O   0  0  0  0  0  0  0  0  0  0  0  0
  156.7933   45.4122  148.3497 C   0  0  1  0  0  0  0  0  0  0  0  0
  156.1958   46.3508  149.2431 O   0  0  0  0  0  0  0  0  0  0  0  0
  157.5969   44.3644  149.0971 C   0  0  1  0  0  0  0  0  0  0  0  0
  156.9985   44.0717  150.3629 O   0  0  0  0  0  0  0  0  0  0  0  0
  157.5077   43.1111  148.2517 C   0  0  2  0  0  0  0  0  0  0  0  0
  158.6636   43.0561  147.3228 N   0  0  0  0  0  0  0  0  0  0  0  0
  158.6250   43.3261  146.0029 C   0  0  0  0  0  0  0  0  0  0  0  0
  159.8512   43.2009  145.4233 N   0  0  0  0  0  0  0  0  0  0  0  0
  160.7118   42.8472  146.3910 C   0  0  0  0  0  0  0  0  0  0  0  0
  162.1619   42.5371  146.4735 C   0  0  0  0  0  0  0  0  0  0  0  0
  162.9162   42.5942  145.4786 O   0  0  0  0  0  0  0  0  0  0  0  0
  162.6547   42.2125  147.6700 N   0  0  0  0  0  0  0  0  0  0  0  0
  161.8879   42.1434  148.7691 C   0  0  0  0  0  0  0  0  0  0  0  0
  162.4853   41.7934  149.9180 N   0  0  0  0  0  0  0  0  0  0  0  0
  160.5593   42.4025  148.7732 N   0  0  0  0  0  0  0  0  0  0  0  0
  159.9230   42.7523  147.6357 C   0  0  0  0  0  0  0  0  0  0  0  0
  1  3  2  1  0  0  0
  1 32  1  0  0  0  0
  1  2  1  0  0  0  0
  1  4  1  0  0  0  0
  4  5  1  0  0  0  0
  6  5  1  1  0  0  0
  7  6  1  0  0  0  0
  8  6  1  0  0  0  0
  8 10  1  0  0  0  0
  8  9  1  6  0  0  0
 10 11  1  6  0  0  0
 12 13  1  1  0  0  0
 12  7  1  0  0  0  0
 12 10  1  0  0  0  0
 14 13  1  0  0  0  0
 15 16  1  0  0  0  0
 15 14  2  0  0  0  0
 16 23  2  0  0  0  0
 17 16  1  0  0  0  0
 17 19  1  0  0  0  0
 18 17  2  0  0  0  0
 19 20  2  0  0  0  0
 20 22  1  0  0  0  0
 20 21  1  0  0  0  0
 23 13  1  0  0  0  0
 23 22  1  0  0  0  0
 24 25  2  6  0  0  0
 24  9  1  0  0  0  0
 24 26  1  0  0  0  0
 27 28  1  0  0  0  0
 27 24  1  0  0  0  0
 29 30  1  6  0  0  0
 29 28  1  0  0  0  0
 31 32  1  1  0  0  0
 31 29  1  0  0  0  0
 33 34  1  1  0  0  0
 33 35  1  0  0  0  0
 33 31  1  0  0  0  0
 35 36  1  6  0  0  0
 35 30  1  0  0  0  0
 36 37  1  0  0  0  0
 38 37  2  0  0  0  0
 39 38  1  0  0  0  0
 40 41  2  0  0  0  0
 40 39  1  0  0  0  0
 42 40  1  0  0  0  0
 43 42  2  0  0  0  0
 43 45  1  0  0  0  0
 44 43  1  0  0  0  0
 45 46  1  0  0  0  0
 46 39  2  0  0  0  0
 46 36  1  0  0  0  0
M  END
>  <CHROM.1>
-94.00492584,10.51981297,158.70995231,46.36105753,146.94912953,1.99357132
-0.07416796,-0.27660660

>  <Name>
lig.pdb

>  <RI>
0

>  <Rbt.Current_Directory>
/home/itssahil/PROJECTS/Mol_Feturizer/New_Systems/rnas/4yb0

>  <Rbt.Executable>
rbdock ($Id: //depot/dev/client3/rdock/2013.1/src/exe/rbdock.cxx#4 $)

>  <Rbt.Library>
libRbt.so (2013.1, Build901 2013/11/27)

>  <Rbt.Parameter_File>
/export/apps/rDock/src/rDock_2013.1_src/data/scripts/dock_solv.prm

>  <Rbt.Receptor>
prm/pocket_docking_7.prm

>  <SCORE>
-17.2657

>  <SCORE.INTER>
-17.5135

>  <SCORE.INTER.CONST>
1

>  <SCORE.INTER.POLAR>
0

>  <SCORE.INTER.ROT>
2

>  <SCORE.INTER.SOLV>
15.045

>  <SCORE.INTER.VDW>
-21.624

>  <SCORE.INTER.norm>
-0.380729

>  <SCORE.INTRA>
0.247811

>  <SCORE.INTRA.DIHEDRAL>
0.0436343

>  <SCORE.INTRA.DIHEDRAL.0>
4.74153

>  <SCORE.INTRA.POLAR>
0

>  <SCORE.INTRA.POLAR.0>
0

>  <SCORE.INTRA.REPUL>
0.101342

>  <SCORE.INTRA.REPUL.0>
0

>  <SCORE.INTRA.SOLV>
3.8028

>  <SCORE.INTRA.SOLV.lig_0>
-60.4375

>  <SCORE.INTRA.VDW>
-2.18212

>  <SCORE.INTRA.VDW.0>
-1.83689

>  <SCORE.INTRA.norm>
0.00538721

>  <SCORE.RESTR>
0

>  <SCORE.RESTR.CAVITY>
0

>  <SCORE.RESTR.norm>
0

>  <SCORE.SYSTEM>
0

>  <SCORE.SYSTEM.CONST>
0

>  <SCORE.SYSTEM.DIHEDRAL>
0

>  <SCORE.SYSTEM.SOLV>
0

>  <SCORE.SYSTEM.norm>
0

>  <SCORE.heavy>
46

>  <SCORE.norm>
-0.375341

>  <RMSD>
7.792

$$$$
lig.pdb
 OpenBabel11021811523D
libRbt.so/2013.1/901 2013/11/27
 46 52  0  0  0  0  0  0  0  0999 V2000
  157.6624   42.1481  147.3949 P   0  0  2  0  0  0  0  0  0  0  0  0
  156.4373   41.2641  147.3097 O   0  0  0  0  0  0  0  0  0  0  0  0
  158.3902   42.1721  148.7143 O   0  0  0  0  0  0  0  0  0  0  0  0
  157.3200   43.6632  146.9798 O   0  0  0  0  0  0  0  0  0  0  0  0
  156.0683   44.0120  146.4028 C   0  0  0  0  0  0  0  0  0  0  0  0
  156.1575   45.3856  145.7586 C   0  0  1  0  0  0  0  0  0  0  0  0
  155.5213   46.3178  146.6212 O   0  0  0  0  0  0  0  0  0  0  0  0
  157.5671   45.9143  145.5254 C   0  0  1  0  0  0  0  0  0  0  0  0
  157.9018   45.7927  144.1507 O   0  0  0  0  0  0  0  0  0  0  0  0
  157.4497   47.3863  145.8517 C   0  0  1  0  0  0  0  0  0  0  0  0
  157.1005   48.1129  144.6719 O   0  0  0  0  0  0  0  0  0  0  0  0
  156.2865   47.5008  146.7937 C   0  0  2  0  0  0  0  0  0  0  0  0
  156.7904   47.5405  148.1869 N   0  0  0  0  0  0  0  0  0  0  0  0
  157.2912   46.4957  148.8690 C   0  0  0  0  0  0  0  0  0  0  0  0
  157.6464   46.8696  150.1217 N   0  0  0  0  0  0  0  0  0  0  0  0
  157.3724   48.1791  150.2590 C   0  0  0  0  0  0  0  0  0  0  0  0
  157.5062   49.1956  151.3290 C   0  0  0  0  0  0  0  0  0  0  0  0
  157.9785   48.8786  152.4472 O   0  0  0  0  0  0  0  0  0  0  0  0
  157.1050   50.4494  151.0577 N   0  0  0  0  0  0  0  0  0  0  0  0
  156.5973   50.7842  149.8564 C   0  0  0  0  0  0  0  0  0  0  0  0
  156.2144   52.0621  149.6382 N   0  0  0  0  0  0  0  0  0  0  0  0
  156.4476   49.9072  148.8379 N   0  0  0  0  0  0  0  0  0  0  0  0
  156.8098   48.6140  148.9768 C   0  0  0  0  0  0  0  0  0  0  0  0
  159.4071   45.9974  143.5778 P   0  0  2  0  0  0  0  0  0  0  0  0
  159.9749   47.2844  144.1250 O   0  0  0  0  0  0  0  0  0  0  0  0
  159.3237   45.7554  142.0824 O   0  0  0  0  0  0  0  0  0  0  0  0
  160.2103   44.7801  144.2725 O   0  0  0  0  0  0  0  0  0  0  0  0
  160.1229   43.4631  143.7300 C   0  0  0  0  0  0  0  0  0  0  0  0
  160.5346   42.3730  144.7243 C   0  0  1  0  0  0  0  0  0  0  0  0
  161.9543   42.3940  144.8876 O   0  0  0  0  0  0  0  0  0  0  0  0
  159.9273   42.5065  146.1190 C   0  0  1  0  0  0  0  0  0  0  0  0
  158.7375   41.7328  146.2675 O   0  0  0  0  0  0  0  0  0  0  0  0
  161.0432   41.9896  147.0077 C   0  0  1  0  0  0  0  0  0  0  0  0
  160.9649   40.5683  147.1480 O   0  0  0  0  0  0  0  0  0  0  0  0
  162.3256   42.3029  146.2656 C   0  0  2  0  0  0  0  0  0  0  0  0
  162.8454   43.6205  146.7081 N   0  0  0  0  0  0  0  0  0  0  0  0
  162.5930   44.8045  146.1157 C   0  0  0  0  0  0  0  0  0  0  0  0
  163.2025   45.8362  146.7632 N   0  0  0  0  0  0  0  0  0  0  0  0
  163.8631   45.3123  147.8079 C   0  0  0  0  0  0  0  0  0  0  0  0
  164.7264   45.8322  148.8989 C   0  0  0  0  0  0  0  0  0  0  0  0
  164.9835   47.0486  149.0267 O   0  0  0  0  0  0  0  0  0  0  0  0
  165.2114   44.9494  149.7735 N   0  0  0  0  0  0  0  0  0  0  0  0
  164.9596   43.6344  149.6832 C   0  0  0  0  0  0  0  0  0  0  0  0
  165.5102   42.8351  150.6090 N   0  0  0  0  0  0  0  0  0  0  0  0
  164.1910   43.0837  148.7146 N   0  0  0  0  0  0  0  0  0  0  0  0
  163.6249   43.8556  147.7633 C   0  0  0  0  0  0  0  0  0  0  0  0
  1  3  2  1  0  0  0
  1 32  1  0  0  0  0
  1  2  1  0  0  0  0
  1  4  1  0  0  0  0
  4  5  1  0  0  0  0
  6  5  1  1  0  0  0
  7  6  1  0  0  0  0
  8  6  1  0  0  0  0
  8 10  1  0  0  0  0
  8  9  1  6  0  0  0
 10 11  1  6  0  0  0
 12 13  1  1  0  0  0
 12  7  1  0  0  0  0
 12 10  1  0  0  0  0
 14 13  1  0  0  0  0
 15 16  1  0  0  0  0
 15 14  2  0  0  0  0
 16 23  2  0  0  0  0
 17 16  1  0  0  0  0
 17 19  1  0  0  0  0
 18 17  2  0  0  0  0
 19 20  2  0  0  0  0
 20 22  1  0  0  0  0
 20 21  1  0  0  0  0
 23 13  1  0  0  0  0
 23 22  1  0  0  0  0
 24 25  2  1  0  0  0
 24  9  1  0  0  0  0
 24 26  1  0  0  0  0
 27 28  1  0  0  0  0
 27 24  1  0  0  0  0
 29 30  1  1  0  0  0
 29 28  1  0  0  0  0
 31 32  1  6  0  0  0
 31 29  1  0  0  0  0
 33 34  1  6  0  0  0
 33 35  1  0  0  0  0
 33 31  1  0  0  0  0
 35 36  1  1  0  0  0
 35 30  1  0  0  0  0
 36 37  1  0  0  0  0
 38 37  2  0  0  0  0
 39 38  1  0  0  0  0
 40 41  2  0  0  0  0
 40 39  1  0  0  0  0
 42 40  1  0  0  0  0
 43 42  2  0  0  0  0
 43 45  1  0  0  0  0
 44 43  1  0  0  0  0
 45 46  1  0  0  0  0
 46 39  2  0  0  0  0
 46 36  1  0  0  0  0
M  END
>  <CHROM.1>
42.06769795,21.44715965,159.51146149,45.32516450,147.17861707,0.66540969
0.41930940,-2.38286605

>  <Name>
lig.pdb

>  <RI>
0

>  <Rbt.Current_Directory>
/home/itssahil/PROJECTS/Mol_Feturizer/New_Systems/rnas/4yb0

>  <Rbt.Executable>
rbdock ($Id: //depot/dev/client3/rdock/2013.1/src/exe/rbdock.cxx#4 $)

>  <Rbt.Library>
libRbt.so (2013.1, Build901 2013/11/27)

>  <Rbt.Parameter_File>
/export/apps/rDock/src/rDock_2013.1_src/data/scripts/dock_solv.prm

>  <Rbt.Receptor>
prm/pocket_docking_8.prm

>  <SCORE>
-22.1979

>  <SCORE.INTER>
-21.8911

>  <SCORE.INTER.CONST>
1

>  <SCORE.INTER.POLAR>
0

>  <SCORE.INTER.ROT>
2

>  <SCORE.INTER.SOLV>
15.9515

>  <SCORE.INTER.VDW>
-24.8446

>  <SCORE.INTER.norm>
-0.475894

>  <SCORE.INTRA>
-0.306787

>  <SCORE.INTRA.DIHEDRAL>
0.0755451

>  <SCORE.INTRA.DIHEDRAL.0>
4.74153

>  <SCORE.INTRA.POLAR>
0

>  <SCORE.INTRA.POLAR.0>
0

>  <SCORE.INTRA.REPUL>
0

>  <SCORE.INTRA.REPUL.0>
0

>  <SCORE.INTRA.SOLV>
0.0923764

>  <SCORE.INTRA.SOLV.lig_0>
-60.4375

>  <SCORE.INTRA.VDW>
-0.390747

>  <SCORE.INTRA.VDW.0>
-1.83689

>  <SCORE.INTRA.norm>
-0.00666927

>  <SCORE.RESTR>
0

>  <SCORE.RESTR.CAVITY>
0

>  <SCORE.RESTR.norm>
0

>  <SCORE.SYSTEM>
0

>  <SCORE.SYSTEM.CONST>
0

>  <SCORE.SYSTEM.DIHEDRAL>
0

>  <SCORE.SYSTEM.SOLV>
0

>  <SCORE.SYSTEM.norm>
0

>  <SCORE.heavy>
46

>  <SCORE.norm>
-0.482563

>  <RMSD>
7.821

$$$$
lig.pdb
 OpenBabel11021811523D
libRbt.so/2013.1/901 2013/11/27
 46 52  0  0  0  0  0  0  0  0999 V2000
  159.8292   44.3794  144.3366 P   0  0  2  0  0  0  0  0  0  0  0  0
  160.0450   43.1959  143.4187 O   0  0  0  0  0  0  0  0  0  0  0  0
  160.9332   45.4037  144.3924 O   0  0  0  0  0  0  0  0  0  0  0  0
  159.5061   43.9033  145.8379 O   0  0  0  0  0  0  0  0  0  0  0  0
  159.2486   42.5398  146.1472 C   0  0  0  0  0  0  0  0  0  0  0  0
  158.5990   42.4311  147.5168 C   0  0  1  0  0  0  0  0  0  0  0  0
  159.5880   41.9960  148.4391 O   0  0  0  0  0  0  0  0  0  0  0  0
  158.0304   43.7266  148.0817 C   0  0  1  0  0  0  0  0  0  0  0  0
  156.6158   43.7222  147.9569 O   0  0  0  0  0  0  0  0  0  0  0  0
  158.3722   43.6495  149.5528 C   0  0  1  0  0  0  0  0  0  0  0  0
  157.3104   43.0045  150.2590 O   0  0  0  0  0  0  0  0  0  0  0  0
  159.5675   42.7459  149.6440 C   0  0  2  0  0  0  0  0  0  0  0  0
  160.7973   43.5706  149.7100 N   0  0  0  0  0  0  0  0  0  0  0  0
  161.1678   44.3431  150.7461 C   0  0  0  0  0  0  0  0  0  0  0  0
  162.3353   44.9752  150.4766 N   0  0  0  0  0  0  0  0  0  0  0  0
  162.7323   44.6093  149.2447 C   0  0  0  0  0  0  0  0  0  0  0  0
  163.8791   44.9089  148.3552 C   0  0  0  0  0  0  0  0  0  0  0  0
  164.7796   45.6987  148.7284 O   0  0  0  0  0  0  0  0  0  0  0  0
  163.9128   44.3120  147.1515 N   0  0  0  0  0  0  0  0  0  0  0  0
  162.9429   43.4663  146.7551 C   0  0  0  0  0  0  0  0  0  0  0  0
  163.0314   42.8909  145.5351 N   0  0  0  0  0  0  0  0  0  0  0  0
  161.8706   43.1500  147.5160 N   0  0  0  0  0  0  0  0  0  0  0  0
  161.7125   43.6807  148.7473 C   0  0  0  0  0  0  0  0  0  0  0  0
  155.6951   45.0377  148.1975 P   0  0  2  0  0  0  0  0  0  0  0  0
  156.0858   45.6838  149.5044 O   0  0  0  0  0  0  0  0  0  0  0  0
  154.2649   44.6019  147.9398 O   0  0  0  0  0  0  0  0  0  0  0  0
  156.1773   46.0196  147.0089 O   0  0  0  0  0  0  0  0  0  0  0  0
  155.6749   45.8414  145.6852 C   0  0  0  0  0  0  0  0  0  0  0  0
  156.5423   46.5125  144.6157 C   0  0  1  0  0  0  0  0  0  0  0  0
  156.3570   47.9283  144.6769 O   0  0  0  0  0  0  0  0  0  0  0  0
  158.0423   46.2571  144.7452 C   0  0  1  0  0  0  0  0  0  0  0  0
  158.4760   45.1612  143.9406 O   0  0  0  0  0  0  0  0  0  0  0  0
  158.6355   47.5691  144.2670 C   0  0  1  0  0  0  0  0  0  0  0  0
  158.7936   47.5679  142.8454 O   0  0  0  0  0  0  0  0  0  0  0  0
  157.6044   48.6244  144.6085 C   0  0  2  0  0  0  0  0  0  0  0  0
  157.9050   49.1978  145.9437 N   0  0  0  0  0  0  0  0  0  0  0  0
  157.0116   49.7776  146.7696 C   0  0  0  0  0  0  0  0  0  0  0  0
  157.5897   50.1951  147.9301 N   0  0  0  0  0  0  0  0  0  0  0  0
  158.8912   49.8731  147.8617 C   0  0  0  0  0  0  0  0  0  0  0  0
  160.0814   50.0340  148.7353 C   0  0  0  0  0  0  0  0  0  0  0  0
  160.0163   50.5679  149.8635 O   0  0  0  0  0  0  0  0  0  0  0  0
  161.2442   49.5605  148.2844 N   0  0  0  0  0  0  0  0  0  0  0  0
  161.3650   48.9738  147.0836 C   0  0  0  0  0  0  0  0  0  0  0  0
  162.5849   48.5467  146.7247 N   0  0  0  0  0  0  0  0  0  0  0  0
  160.3308   48.7985  146.2281 N   0  0  0  0  0  0  0  0  0  0  0  0
  159.0905   49.2200  146.5525 C   0  0  0  0  0  0  0  0  0  0  0  0
  1  3  2  6  0  0  0
  1 32  1  0  0  0  0
  1  2  1  0  0  0  0
  1  4  1  0  0  0  0
  4  5  1  0  0  0  0
  6  5  1  6  0  0  0
  7  6  1  0  0  0  0
  8  6  1  0  0  0  0
  8 10  1  0  0  0  0
  8  9  1  1  0  0  0
 10 11  1  1  0  0  0
 12 13  1  6  0  0  0
 12  7  1  0  0  0  0
 12 10  1  0  0  0  0
 14 13  1  0  0  0  0
 15 16  1  0  0  0  0
 15 14  2  0  0  0  0
 16 23  2  0  0  0  0
 17 16  1  0  0  0  0
 17 19  1  0  0  0  0
 18 17  2  0  0  0  0
 19 20  2  0  0  0  0
 20 22  1  0  0  0  0
 20 21  1  0  0  0  0
 23 13  1  0  0  0  0
 23 22  1  0  0  0  0
 24 25  2  1  0  0  0
 24  9  1  0  0  0  0
 24 26  1  0  0  0  0
 27 28  1  0  0  0  0
 27 24  1  0  0  0  0
 29 30  1  1  0  0  0
 29 28  1  0  0  0  0
 31 32  1  6  0  0  0
 31 29  1  0  0  0  0
 33 34  1  6  0  0  0
 33 35  1  0  0  0  0
 33 31  1  0  0  0  0
 35 36  1  1  0  0  0
 35 30  1  0  0  0  0
 36 37  1  0  0  0  0
 38 37  2  0  0  0  0
 39 38  1  0  0  0  0
 40 41  2  0  0  0  0
 40 39  1  0  0  0  0
 42 40  1  0  0  0  0
 43 42  2  0  0  0  0
 43 45  1  0  0  0  0
 44 43  1  0  0  0  0
 45 46  1  0  0  0  0
 46 39  2  0  0  0  0
 46 36  1  0  0  0  0
M  END
>  <CHROM.1>
-175.33824951,-40.38359585,159.30983365,45.72627861,147.06680148,0.76246346
0.20707293,2.91786357

>  <Name>
lig.pdb

>  <RI>
0

>  <Rbt.Current_Directory>
/home/itssahil/PROJECTS/Mol_Feturizer/New_Systems/rnas/4yb0

>  <Rbt.Executable>
rbdock ($Id: //depot/dev/client3/rdock/2013.1/src/exe/rbdock.cxx#4 $)

>  <Rbt.Library>
libRbt.so (2013.1, Build901 2013/11/27)

>  <Rbt.Parameter_File>
/export/apps/rDock/src/rDock_2013.1_src/data/scripts/dock_solv.prm

>  <Rbt.Receptor>
prm/pocket_docking_8.prm

>  <SCORE>
-12.1876

>  <SCORE.INTER>
-12.1525

>  <SCORE.INTER.CONST>
1

>  <SCORE.INTER.POLAR>
0

>  <SCORE.INTER.ROT>
2

>  <SCORE.INTER.SOLV>
12.6621

>  <SCORE.INTER.VDW>
-17.2557

>  <SCORE.INTER.norm>
-0.264184

>  <SCORE.INTRA>
-0.0351432

>  <SCORE.INTRA.DIHEDRAL>
0.0197756

>  <SCORE.INTRA.DIHEDRAL.0>
4.74153

>  <SCORE.INTRA.POLAR>
0

>  <SCORE.INTRA.POLAR.0>
0

>  <SCORE.INTRA.REPUL>
0

>  <SCORE.INTRA.REPUL.0>
0

>  <SCORE.INTRA.SOLV>
2.56817

>  <SCORE.INTRA.SOLV.lig_0>
-60.4375

>  <SCORE.INTRA.VDW>
-1.32911

>  <SCORE.INTRA.VDW.0>
-1.83689

>  <SCORE.INTRA.norm>
-0.000763983

>  <SCORE.RESTR>
0

>  <SCORE.RESTR.CAVITY>
0

>  <SCORE.RESTR.norm>
0

>  <SCORE.SYSTEM>
0

>  <SCORE.SYSTEM.CONST>
0

>  <SCORE.SYSTEM.DIHEDRAL>
0

>  <SCORE.SYSTEM.SOLV>
0

>  <SCORE.SYSTEM.norm>
0

>  <SCORE.heavy>
46

>  <SCORE.norm>
-0.264948

>  <RMSD>
7.829

$$$$
lig.pdb
 OpenBabel11021811523D
libRbt.so/2013.1/901 2013/11/27
 46 52  0  0  0  0  0  0  0  0999 V2000
  157.6127   42.1068  147.4739 P   0  0  2  0  0  0  0  0  0  0  0  0
  156.3833   41.2292  147.3846 O   0  0  0  0  0  0  0  0  0  0  0  0
  158.3299   42.1355  148.7990 O   0  0  0  0  0  0  0  0  0  0  0  0
  157.2822   43.6210  147.0460 O   0  0  0  0  0  0  0  0  0  0  0  0
  156.0373   43.9730  146.4567 C   0  0  0  0  0  0  0  0  0  0  0  0
  156.1395   45.3418  145.8041 C   0  0  1  0  0  0  0  0  0  0  0  0
  155.5017   46.2833  146.6554 O   0  0  0  0  0  0  0  0  0  0  0  0
  157.5539   45.8610  145.5789 C   0  0  1  0  0  0  0  0  0  0  0  0
  157.8990   45.7284  144.2078 O   0  0  0  0  0  0  0  0  0  0  0  0
  157.4423   47.3358  145.8946 C   0  0  1  0  0  0  0  0  0  0  0  0
  157.1068   48.0565  144.7072 O   0  0  0  0  0  0  0  0  0  0  0  0
  156.2722   47.4631  146.8263 C   0  0  2  0  0  0  0  0  0  0  0  0
  156.7651   47.5091  148.2233 N   0  0  0  0  0  0  0  0  0  0  0  0
  157.2557   46.4664  148.9157 C   0  0  0  0  0  0  0  0  0  0  0  0
  157.6024   46.8465  150.1689 N   0  0  0  0  0  0  0  0  0  0  0  0
  157.3331   48.1580  150.2960 C   0  0  0  0  0  0  0  0  0  0  0  0
  157.4628   49.1805  151.3608 C   0  0  0  0  0  0  0  0  0  0  0  0
  157.9248   48.8683  152.4847 O   0  0  0  0  0  0  0  0  0  0  0  0
  157.0694   50.4343  151.0786 N   0  0  0  0  0  0  0  0  0  0  0  0
  156.5729   50.7639  149.8712 C   0  0  0  0  0  0  0  0  0  0  0  0
  156.1974   52.0421  149.6421 N   0  0  0  0  0  0  0  0  0  0  0  0
  156.4275   49.8814  148.8570 N   0  0  0  0  0  0  0  0  0  0  0  0
  156.7828   48.5874  149.0066 C   0  0  0  0  0  0  0  0  0  0  0  0
  159.4101   45.9208  143.6458 P   0  0  2  0  0  0  0  0  0  0  0  0
  159.9807   47.2082  144.1891 O   0  0  0  0  0  0  0  0  0  0  0  0
  159.3373   45.6693  142.1514 O   0  0  0  0  0  0  0  0  0  0  0  0
  160.2006   44.7036  144.3550 O   0  0  0  0  0  0  0  0  0  0  0  0
  160.1101   43.3836  143.8205 C   0  0  0  0  0  0  0  0  0  0  0  0
  160.5076   42.2977  144.8253 C   0  0  1  0  0  0  0  0  0  0  0  0
  161.9260   42.3118  144.9999 O   0  0  0  0  0  0  0  0  0  0  0  0
  159.8898   42.4440  146.2141 C   0  0  1  0  0  0  0  0  0  0  0  0
  158.6945   41.6780  146.3580 O   0  0  0  0  0  0  0  0  0  0  0  0
  160.9955   41.9267  147.1152 C   0  0  1  0  0  0  0  0  0  0  0  0
  160.9080   40.5068  147.2642 O   0  0  0  0  0  0  0  0  0  0  0  0
  162.2856   42.2278  146.3815 C   0  0  2  0  0  0  0  0  0  0  0  0
  162.8094   43.5454  146.8195 N   0  0  0  0  0  0  0  0  0  0  0  0
  162.5040   44.7360  146.2667 C   0  0  0  0  0  0  0  0  0  0  0  0
  163.1337   45.7653  146.8984 N   0  0  0  0  0  0  0  0  0  0  0  0
  163.8625   45.2329  147.8922 C   0  0  0  0  0  0  0  0  0  0  0  0
  164.7796   45.7464  148.9414 C   0  0  0  0  0  0  0  0  0  0  0  0
  165.0243   46.9644  149.0786 O   0  0  0  0  0  0  0  0  0  0  0  0
  165.3288   44.8555  149.7685 N   0  0  0  0  0  0  0  0  0  0  0  0
  165.0931   43.5383  149.6665 C   0  0  0  0  0  0  0  0  0  0  0  0
  165.7095   42.7309  150.5425 N   0  0  0  0  0  0  0  0  0  0  0  0
  164.2781   42.9932  148.7333 N   0  0  0  0  0  0  0  0  0  0  0  0
  163.6453   43.7735  147.8322 C   0  0  0  0  0  0  0  0  0  0  0  0
  1  3  2  1  0  0  0
  1 32  1  0  0  0  0
  1  2  1  0  0  0  0
  1  4  1  0  0  0  0
  4  5  1  0  0  0  0
  6  5  1  1  0  0  0
  7  6  1  0  0  0  0
  8  6  1  0  0  0  0
  8 10  1  0  0  0  0
  8  9  1  6  0  0  0
 10 11  1  6  0  0  0
 12 13  1  1  0  0  0
 12  7  1  0  0  0  0
 12 10  1  0  0  0  0
 14 13  1  0  0  0  0
 15 16  1  0  0  0  0
 15 14  2  0  0  0  0
 16 23  2  0  0  0  0
 17 16  1  0  0  0  0
 17 19  1  0  0  0  0
 18 17  2  0  0  0  0
 19 20  2  0  0  0  0
 20 22  1  0  0  0  0
 20 21  1  0  0  0  0
 23 13  1  0  0  0  0
 23 22  1  0  0  0  0
 24 25  2  1  0  0  0
 24  9  1  0  0  0  0
 24 26  1  0  0  0  0
 27 28  1  0  0  0  0
 27 24  1  0  0  0  0
 29 30  1  1  0  0  0
 29 28  1  0  0  0  0
 31 32  1  6  0  0  0
 31 29  1  0  0  0  0
 33 34  1  6  0  0  0
 33 35  1  0  0  0  0
 33 31  1  0  0  0  0
 35 36  1  1  0  0  0
 35 30  1  0  0  0  0
 36 37  1  0  0  0  0
 38 37  2  0  0  0  0
 39 38  1  0  0  0  0
 40 41  2  0  0  0  0
 40 39  1  0  0  0  0
 42 40  1  0  0  0  0
 43 42  2  0  0  0  0
 43 45  1  0  0  0  0
 44 43  1  0  0  0  0
 45 46  1  0  0  0  0
 46 39  2  0  0  0  0
 46 36  1  0  0  0  0
M  END
>  <CHROM.1>
42.14489640,25.72882970,159.49957130,45.26896689,147.23817631,0.65150246
0.41075428,-2.40043144

>  <Name>
lig.pdb

>  <RI>
0

>  <Rbt.Current_Directory>
/home/itssahil/PROJECTS/Mol_Feturizer/New_Systems/rnas/4yb0

>  <Rbt.Executable>
rbdock ($Id: //depot/dev/client3/rdock/2013.1/src/exe/rbdock.cxx#4 $)

>  <Rbt.Library>
libRbt.so (2013.1, Build901 2013/11/27)

>  <Rbt.Parameter_File>
/export/apps/rDock/src/rDock_2013.1_src/data/scripts/dock_solv.prm

>  <Rbt.Receptor>
prm/pocket_docking_8.prm

>  <SCORE>
-22.3456

>  <SCORE.INTER>
-22.0444

>  <SCORE.INTER.CONST>
1

>  <SCORE.INTER.POLAR>
0

>  <SCORE.INTER.ROT>
2

>  <SCORE.INTER.SOLV>
16.6441

>  <SCORE.INTER.VDW>
-25.1776

>  <SCORE.INTER.norm>
-0.479226

>  <SCORE.INTRA>
-0.301179

>  <SCORE.INTRA.DIHEDRAL>
0.0804129

>  <SCORE.INTRA.DIHEDRAL.0>
4.74153

>  <SCORE.INTRA.POLAR>
0

>  <SCORE.INTRA.POLAR.0>
0

>  <SCORE.INTRA.REPUL>
0

>  <SCORE.INTRA.REPUL.0>
0

>  <SCORE.INTRA.SOLV>
0.0949425

>  <SCORE.INTRA.SOLV.lig_0>
-60.4375

>  <SCORE.INTRA.VDW>
-0.388856

>  <SCORE.INTRA.VDW.0>
-1.83689

>  <SCORE.INTRA.norm>
-0.00654737

>  <SCORE.RESTR>
0

>  <SCORE.RESTR.CAVITY>
0

>  <SCORE.RESTR.norm>
0

>  <SCORE.SYSTEM>
0

>  <SCORE.SYSTEM.CONST>
0

>  <SCORE.SYSTEM.DIHEDRAL>
0

>  <SCORE.SYSTEM.SOLV>
0

>  <SCORE.SYSTEM.norm>
0

>  <SCORE.heavy>
46

>  <SCORE.norm>
-0.485773

>  <RMSD>
7.834

$$$$
lig.pdb
 OpenBabel11021811523D
libRbt.so/2013.1/901 2013/11/27
 46 52  0  0  0  0  0  0  0  0999 V2000
  156.9238   47.7309  149.6001 P   0  0  2  0  0  0  0  0  0  0  0  0
  156.0472   48.6450  150.4281 O   0  0  0  0  0  0  0  0  0  0  0  0
  158.2110   47.2697  150.2338 O   0  0  0  0  0  0  0  0  0  0  0  0
  157.2703   48.3876  148.1740 O   0  0  0  0  0  0  0  0  0  0  0  0
  156.6239   49.5706  147.7226 C   0  0  0  0  0  0  0  0  0  0  0  0
  156.8368   49.7412  146.2275 C   0  0  1  0  0  0  0  0  0  0  0  0
  157.8303   50.7382  146.0359 O   0  0  0  0  0  0  0  0  0  0  0  0
  157.3265   48.5039  145.4856 C   0  0  1  0  0  0  0  0  0  0  0  0
  156.2502   47.9214  144.7653 O   0  0  0  0  0  0  0  0  0  0  0  0
  158.3142   49.0609  144.4851 C   0  0  1  0  0  0  0  0  0  0  0  0
  157.6353   49.3855  143.2703 O   0  0  0  0  0  0  0  0  0  0  0  0
  158.7990   50.3548  145.0719 C   0  0  2  0  0  0  0  0  0  0  0  0
  160.0894   50.1227  145.7630 N   0  0  0  0  0  0  0  0  0  0  0  0
  160.6179   50.9060  146.7193 C   0  0  0  0  0  0  0  0  0  0  0  0
  161.8138   50.4186  147.1285 N   0  0  0  0  0  0  0  0  0  0  0  0
  162.0696   49.2997  146.4274 C   0  0  0  0  0  0  0  0  0  0  0  0
  163.1592   48.2970  146.3692 C   0  0  0  0  0  0  0  0  0  0  0  0
  164.1636   48.4104  147.1124 O   0  0  0  0  0  0  0  0  0  0  0  0
  163.0306   47.2796  145.5003 N   0  0  0  0  0  0  0  0  0  0  0  0
  161.9512   47.1633  144.7038 C   0  0  0  0  0  0  0  0  0  0  0  0
  161.8731   46.1164  143.8522 N   0  0  0  0  0  0  0  0  0  0  0  0
  160.9230   48.0417  144.7060 N   0  0  0  0  0  0  0  0  0  0  0  0
  160.9254   49.1110  145.5303 C   0  0  0  0  0  0  0  0  0  0  0  0
  156.3263   46.4498  144.0835 P   0  0  2  0  0  0  0  0  0  0  0  0
  157.5943   46.3447  143.2716 O   0  0  0  0  0  0  0  0  0  0  0  0
  154.9701   46.2118  143.4462 O   0  0  0  0  0  0  0  0  0  0  0  0
  156.4914   45.4821  145.3664 O   0  0  0  0  0  0  0  0  0  0  0  0
  155.3500   45.1241  146.1444 C   0  0  0  0  0  0  0  0  0  0  0  0
  155.7099   44.6124  147.5427 C   0  0  1  0  0  0  0  0  0  0  0  0
  156.2611   43.2979  147.4376 O   0  0  0  0  0  0  0  0  0  0  0  0
  156.7300   45.4603  148.2993 C   0  0  1  0  0  0  0  0  0  0  0  0
  156.1090   46.4096  149.1649 O   0  0  0  0  0  0  0  0  0  0  0  0
  157.5025   44.4143  149.0812 C   0  0  1  0  0  0  0  0  0  0  0  0
  156.8613   44.1354  150.3289 O   0  0  0  0  0  0  0  0  0  0  0  0
  157.4338   43.1545  148.2435 C   0  0  2  0  0  0  0  0  0  0  0  0
  158.6192   43.0853  147.3535 N   0  0  0  0  0  0  0  0  0  0  0  0
  158.6304   43.3674  146.0356 C   0  0  0  0  0  0  0  0  0  0  0  0
  159.8729   43.2237  145.4964 N   0  0  0  0  0  0  0  0  0  0  0  0
  160.6935   42.8451  146.4892 C   0  0  0  0  0  0  0  0  0  0  0  0
  162.1338   42.5065  146.6176 C   0  0  0  0  0  0  0  0  0  0  0  0
  162.9222   42.5577  145.6492 O   0  0  0  0  0  0  0  0  0  0  0  0
  162.5796   42.1622  147.8269 N   0  0  0  0  0  0  0  0  0  0  0  0
  161.7749   42.0983  148.8989 C   0  0  0  0  0  0  0  0  0  0  0  0
  162.3264   41.7269  150.0639 N   0  0  0  0  0  0  0  0  0  0  0  0
  160.4521   42.3828  148.8607 N   0  0  0  0  0  0  0  0  0  0  0  0
  159.8614   42.7547  147.7057 C   0  0  0  0  0  0  0  0  0  0  0  0
  1  3  2  1  0  0  0
  1 32  1  0  0  0  0
  1  2  1  0  0  0  0
  1  4  1  0  0  0  0
  4  5  1  0  0  0  0
  6  5  1  1  0  0  0
  7  6  1  0  0  0  0
  8  6  1  0  0  0  0
  8 10  1  0  0  0  0
  8  9  1  6  0  0  0
 10 11  1  6  0  0  0
 12 13  1  1  0  0  0
 12  7  1  0  0  0  0
 12 10  1  0  0  0  0
 14 13  1  0  0  0  0
 15 16  1  0  0  0  0
 15 14  2  0  0  0  0
 16 23  2  0  0  0  0
 17 16  1  0  0  0  0
 17 19  1  0  0  0  0
 18 17  2  0  0  0  0
 19 20  2  0  0  0  0
 20 22  1  0  0  0  0
 20 21  1  0  0  0  0
 23 13  1  0  0  0  0
 23 22  1  0  0  0  0
 24 25  2  6  0  0  0
 24  9  1  0  0  0  0
 24 26  1  0  0  0  0
 27 28  1  0  0  0  0
 27 24  1  0  0  0  0
 29 30  1  6  0  0  0
 29 28  1  0  0  0  0
 31 32  1  1  0  0  0
 31 29  1  0  0  0  0
 33 34  1  1  0  0  0
 33 35  1  0  0  0  0
 33 31  1  0  0  0  0
 35 36  1  6  0  0  0
 35 30  1  0  0  0  0
 36 37  1  0  0  0  0
 38 37  2  0  0  0  0
 39 38  1  0  0  0  0
 40 41  2  0  0  0  0
 40 39  1  0  0  0  0
 42 40  1  0  0  0  0
 43 42  2  0  0  0  0
 43 45  1  0  0  0  0
 44 43  1  0  0  0  0
 45 46  1  0  0  0  0
 46 39  2  0  0  0  0
 46 36  1  0  0  0  0
M  END
>  <CHROM.1>
-43.49238584,11.76909042,158.82660931,46.42012195,146.72263594,1.94757870
0.17030167,-0.37720074

>  <Name>
lig.pdb

>  <RI>
0

>  <Rbt.Current_Directory>
/home/itssahil/PROJECTS/Mol_Feturizer/New_Systems/rnas/4yb0

>  <Rbt.Executable>
rbdock ($Id: //depot/dev/client3/rdock/2013.1/src/exe/rbdock.cxx#4 $)

>  <Rbt.Library>
libRbt.so (2013.1, Build901 2013/11/27)

>  <Rbt.Parameter_File>
/export/apps/rDock/src/rDock_2013.1_src/data/scripts/dock_solv.prm

>  <Rbt.Receptor>
prm/pocket_docking_7.prm

>  <SCORE>
-18.8128

>  <SCORE.INTER>
-19.299

>  <SCORE.INTER.CONST>
1

>  <SCORE.INTER.POLAR>
0

>  <SCORE.INTER.ROT>
2

>  <SCORE.INTER.SOLV>
17.1881

>  <SCORE.INTER.VDW>
-23.5287

>  <SCORE.INTER.norm>
-0.419543

>  <SCORE.INTRA>
0.486177

>  <SCORE.INTRA.DIHEDRAL>
0.127347

>  <SCORE.INTRA.DIHEDRAL.0>
4.74153

>  <SCORE.INTRA.POLAR>
0

>  <SCORE.INTRA.POLAR.0>
0

>  <SCORE.INTRA.REPUL>
0

>  <SCORE.INTRA.REPUL.0>
0

>  <SCORE.INTRA.SOLV>
0.506932

>  <SCORE.INTRA.SOLV.lig_0>
-60.4375

>  <SCORE.INTRA.VDW>
0.169038

>  <SCORE.INTRA.VDW.0>
-1.83689

>  <SCORE.INTRA.norm>
0.0105691

>  <SCORE.RESTR>
0

>  <SCORE.RESTR.CAVITY>
0

>  <SCORE.RESTR.norm>
0

>  <SCORE.SYSTEM>
0

>  <SCORE.SYSTEM.CONST>
0

>  <SCORE.SYSTEM.DIHEDRAL>
0

>  <SCORE.SYSTEM.SOLV>
0

>  <SCORE.SYSTEM.norm>
0

>  <SCORE.heavy>
46

>  <SCORE.norm>
-0.408974

>  <RMSD>
7.982

$$$$
lig.pdb
 OpenBabel11021811523D
libRbt.so/2013.1/901 2013/11/27
 46 52  0  0  0  0  0  0  0  0999 V2000
  155.4730   44.5244  147.1567 P   0  0  2  0  0  0  0  0  0  0  0  0
  154.1048   44.0657  146.7015 O   0  0  0  0  0  0  0  0  0  0  0  0
  155.6000   44.9523  148.5961 O   0  0  0  0  0  0  0  0  0  0  0  0
  156.0312   45.7109  146.2263 O   0  0  0  0  0  0  0  0  0  0  0  0
  155.3782   46.0795  145.0185 C   0  0  0  0  0  0  0  0  0  0  0  0
  156.3067   46.9252  144.1627 C   0  0  1  0  0  0  0  0  0  0  0  0
  155.8994   48.2810  144.2801 O   0  0  0  0  0  0  0  0  0  0  0  0
  157.7791   46.8876  144.5518 C   0  0  1  0  0  0  0  0  0  0  0  0
  158.4935   46.0658  143.6402 O   0  0  0  0  0  0  0  0  0  0  0  0
  158.2331   48.3161  144.3514 C   0  0  1  0  0  0  0  0  0  0  0  0
  158.7046   48.4864  143.0132 O   0  0  0  0  0  0  0  0  0  0  0  0
  156.9970   49.1568  144.4876 C   0  0  2  0  0  0  0  0  0  0  0  0
  156.9220   49.6920  145.8677 N   0  0  0  0  0  0  0  0  0  0  0  0
  157.3134   49.0470  146.9805 C   0  0  0  0  0  0  0  0  0  0  0  0
  157.0943   49.8114  148.0772 N   0  0  0  0  0  0  0  0  0  0  0  0
  156.5508   50.9734  147.6733 C   0  0  0  0  0  0  0  0  0  0  0  0
  156.0805   52.2196  148.3228 C   0  0  0  0  0  0  0  0  0  0  0  0
  156.1467   52.3473  149.5691 O   0  0  0  0  0  0  0  0  0  0  0  0
  155.5859   53.1900  147.5353 N   0  0  0  0  0  0  0  0  0  0  0  0
  155.5157   53.0475  146.1982 C   0  0  0  0  0  0  0  0  0  0  0  0
  155.0132   54.0589  145.4553 N   0  0  0  0  0  0  0  0  0  0  0  0
  155.9263   51.9383  145.5426 N   0  0  0  0  0  0  0  0  0  0  0  0
  156.4427   50.8866  146.2137 C   0  0  0  0  0  0  0  0  0  0  0  0
  160.0197   45.5724  143.8917 P   0  0  2  0  0  0  0  0  0  0  0  0
  160.8682   46.7608  144.2737 O   0  0  0  0  0  0  0  0  0  0  0  0
  160.3824   44.7058  142.7003 O   0  0  0  0  0  0  0  0  0  0  0  0
  159.8709   44.6421  145.2039 O   0  0  0  0  0  0  0  0  0  0  0  0
  159.3984   43.3012  145.0808 C   0  0  0  0  0  0  0  0  0  0  0  0
  158.8801   42.7211  146.4004 C   0  0  1  0  0  0  0  0  0  0  0  0
  159.9872   42.4316  147.2566 O   0  0  0  0  0  0  0  0  0  0  0  0
  157.9418   43.6354  147.1849 C   0  0  1  0  0  0  0  0  0  0  0  0
  156.5680   43.3676  146.9073 O   0  0  0  0  0  0  0  0  0  0  0  0
  158.2953   43.3035  148.6226 C   0  0  1  0  0  0  0  0  0  0  0  0
  157.5362   42.1840  149.0877 O   0  0  0  0  0  0  0  0  0  0  0  0
  159.7503   42.8847  148.5922 C   0  0  2  0  0  0  0  0  0  0  0  0
  160.6115   44.0641  148.8561 N   0  0  0  0  0  0  0  0  0  0  0  0
  160.5453   45.2458  148.2113 C   0  0  0  0  0  0  0  0  0  0  0  0
  161.4593   46.1360  148.6883 N   0  0  0  0  0  0  0  0  0  0  0  0
  162.1334   45.5213  149.6732 C   0  0  0  0  0  0  0  0  0  0  0  0
  163.2431   45.8756  150.5945 C   0  0  0  0  0  0  0  0  0  0  0  0
  163.7818   47.0033  150.5907 O   0  0  0  0  0  0  0  0  0  0  0  0
  163.6425   44.9452  151.4631 N   0  0  0  0  0  0  0  0  0  0  0  0
  163.0923   43.7222  151.5111 C   0  0  0  0  0  0  0  0  0  0  0  0
  163.5812   42.8600  152.4150 N   0  0  0  0  0  0  0  0  0  0  0  0
  162.0851   43.3216  150.7004 N   0  0  0  0  0  0  0  0  0  0  0  0
  161.5714   44.1595  149.7757 C   0  0  0  0  0  0  0  0  0  0  0  0
  1  3  2  1  0  0  0
  1 32  1  0  0  0  0
  1  2  1  0  0  0  0
  1  4  1  0  0  0  0
  4  5  1  0  0  0  0
  6  5  1  1  0  0  0
  7  6  1  0  0  0  0
  8  6  1  0  0  0  0
  8 10  1  0  0  0  0
  8  9  1  6  0  0  0
 10 11  1  6  0  0  0
 12 13  1  1  0  0  0
 12  7  1  0  0  0  0
 12 10  1  0  0  0  0
 14 13  1  0  0  0  0
 15 16  1  0  0  0  0
 15 14  2  0  0  0  0
 16 23  2  0  0  0  0
 17 16  1  0  0  0  0
 17 19  1  0  0  0  0
 18 17  2  0  0  0  0
 19 20  2  0  0  0  0
 20 22  1  0  0  0  0
 20 21  1  0  0  0  0
 23 13  1  0  0  0  0
 23 22  1  0  0  0  0
 24 25  2  1  0  0  0
 24  9  1  0  0  0  0
 24 26  1  0  0  0  0
 27 28  1  0  0  0  0
 27 24  1  0  0  0  0
 29 30  1  1  0  0  0
 29 28  1  0  0  0  0
 31 32  1  1  0  0  0
 31 29  1  0  0  0  0
 33 34  1  6  0  0  0
 33 35  1  0  0  0  0
 33 31  1  0  0  0  0
 35 36  1  6  0  0  0
 35 30  1  0  0  0  0
 36 37  1  0  0  0  0
 38 37  2  0  0  0  0
 39 38  1  0  0  0  0
 40 41  2  0  0  0  0
 40 39  1  0  0  0  0
 42 40  1  0  0  0  0
 43 42  2  0  0  0  0
 43 45  1  0  0  0  0
 44 43  1  0  0  0  0
 45 46  1  0  0  0  0
 46 39  2  0  0  0  0
 46 36  1  0  0  0  0
M  END
>  <CHROM.1>
79.80791152,63.05753746,158.47029077,46.49004016,146.97471363,2.54399547
-0.82218260,0.37612175

>  <Name>
lig.pdb

>  <RI>
0

>  <Rbt.Current_Directory>
/home/itssahil/PROJECTS/Mol_Feturizer/New_Systems/rnas/4yb0

>  <Rbt.Executable>
rbdock ($Id: //depot/dev/client3/rdock/2013.1/src/exe/rbdock.cxx#4 $)

>  <Rbt.Library>
libRbt.so (2013.1, Build901 2013/11/27)

>  <Rbt.Parameter_File>
/export/apps/rDock/src/rDock_2013.1_src/data/scripts/dock_solv.prm

>  <Rbt.Receptor>
prm/pocket_docking_8.prm

>  <SCORE>
-13.9965

>  <SCORE.INTER>
-14.2423

>  <SCORE.INTER.CONST>
1

>  <SCORE.INTER.POLAR>
0

>  <SCORE.INTER.ROT>
2

>  <SCORE.INTER.SOLV>
11.4634

>  <SCORE.INTER.VDW>
-18.2493

>  <SCORE.INTER.norm>
-0.309615

>  <SCORE.INTRA>
0.2458

>  <SCORE.INTRA.DIHEDRAL>
0.090291

>  <SCORE.INTRA.DIHEDRAL.0>
4.74153

>  <SCORE.INTRA.POLAR>
0

>  <SCORE.INTRA.POLAR.0>
0

>  <SCORE.INTRA.REPUL>
0

>  <SCORE.INTRA.REPUL.0>
0

>  <SCORE.INTRA.SOLV>
-0.102759

>  <SCORE.INTRA.SOLV.lig_0>
-60.4375

>  <SCORE.INTRA.VDW>
0.252033

>  <SCORE.INTRA.VDW.0>
-1.83689

>  <SCORE.INTRA.norm>
0.00534347

>  <SCORE.RESTR>
0

>  <SCORE.RESTR.CAVITY>
0

>  <SCORE.RESTR.norm>
0

>  <SCORE.SYSTEM>
0

>  <SCORE.SYSTEM.CONST>
0

>  <SCORE.SYSTEM.DIHEDRAL>
0

>  <SCORE.SYSTEM.SOLV>
0

>  <SCORE.SYSTEM.norm>
0

>  <SCORE.heavy>
46

>  <SCORE.norm>
-0.304271

>  <RMSD>
8.147

$$$$
lig.pdb
 OpenBabel11021811523D
libRbt.so/2013.1/901 2013/11/27
 46 52  0  0  0  0  0  0  0  0999 V2000
  157.0298   47.5371  149.6800 P   0  0  2  0  0  0  0  0  0  0  0  0
  156.1795   48.4593  150.5263 O   0  0  0  0  0  0  0  0  0  0  0  0
  158.3342   47.0783  150.2792 O   0  0  0  0  0  0  0  0  0  0  0  0
  157.3354   48.1821  148.2393 O   0  0  0  0  0  0  0  0  0  0  0  0
  156.6781   49.3628  147.7979 C   0  0  0  0  0  0  0  0  0  0  0  0
  156.8473   49.5215  146.2959 C   0  0  1  0  0  0  0  0  0  0  0  0
  157.8365   50.5151  146.0675 O   0  0  0  0  0  0  0  0  0  0  0  0
  157.3128   48.2776  145.5496 C   0  0  1  0  0  0  0  0  0  0  0  0
  156.2149   47.6916  144.8658 O   0  0  0  0  0  0  0  0  0  0  0  0
  158.2717   48.8250  144.5163 C   0  0  1  0  0  0  0  0  0  0  0  0
  157.5580   49.1415  143.3195 O   0  0  0  0  0  0  0  0  0  0  0  0
  158.7757   50.1224  145.0785 C   0  0  2  0  0  0  0  0  0  0  0  0
  160.0855   49.8931  145.7332 N   0  0  0  0  0  0  0  0  0  0  0  0
  160.2665   49.4582  146.9924 C   0  0  0  0  0  0  0  0  0  0  0  0
  161.5870   49.3714  147.2822 N   0  0  0  0  0  0  0  0  0  0  0  0
  162.2783   49.7563  146.1947 C   0  0  0  0  0  0  0  0  0  0  0  0
  163.7071   49.8965  145.8271 C   0  0  0  0  0  0  0  0  0  0  0  0
  164.6043   49.6218  146.6598 O   0  0  0  0  0  0  0  0  0  0  0  0
  163.9972   50.3254  144.5868 N   0  0  0  0  0  0  0  0  0  0  0  0
  163.0304   50.6203  143.6972 C   0  0  0  0  0  0  0  0  0  0  0  0
  163.3811   51.0429  142.4620 N   0  0  0  0  0  0  0  0  0  0  0  0
  161.7095   50.5150  143.9672 N   0  0  0  0  0  0  0  0  0  0  0  0
  161.2795   50.0967  145.1767 C   0  0  0  0  0  0  0  0  0  0  0  0
  156.2683   46.2147  144.1935 P   0  0  2  0  0  0  0  0  0  0  0  0
  157.5118   46.1009  143.3455 O   0  0  0  0  0  0  0  0  0  0  0  0
  154.8937   45.9745  143.5981 O   0  0  0  0  0  0  0  0  0  0  0  0
  156.4694   45.2566  145.4784 O   0  0  0  0  0  0  0  0  0  0  0  0
  155.3507   44.9068  146.2924 C   0  0  0  0  0  0  0  0  0  0  0  0
  155.7506   44.4052  147.6834 C   0  0  1  0  0  0  0  0  0  0  0  0
  156.2962   43.0889  147.5724 O   0  0  0  0  0  0  0  0  0  0  0  0
  156.7940   45.2569  148.4031 C   0  0  1  0  0  0  0  0  0  0  0  0
  156.2003   46.2141  149.2792 O   0  0  0  0  0  0  0  0  0  0  0  0
  157.5873   44.2155  149.1701 C   0  0  1  0  0  0  0  0  0  0  0  0
  156.9825   43.9475  150.4382 O   0  0  0  0  0  0  0  0  0  0  0  0
  157.4918   42.9494  148.3446 C   0  0  2  0  0  0  0  0  0  0  0  0
  158.6505   42.8711  147.4208 N   0  0  0  0  0  0  0  0  0  0  0  0
  158.6558   42.2671  146.2159 C   0  0  0  0  0  0  0  0  0  0  0  0
  159.8655   42.3756  145.5992 N   0  0  0  0  0  0  0  0  0  0  0  0
  160.6665   43.0736  146.4198 C   0  0  0  0  0  0  0  0  0  0  0  0
  162.0763   43.5401  146.3987 C   0  0  0  0  0  0  0  0  0  0  0  0
  162.8379   43.3252  145.4312 O   0  0  0  0  0  0  0  0  0  0  0  0
  162.5115   44.2319  147.4530 N   0  0  0  0  0  0  0  0  0  0  0  0
  161.7316   44.4940  148.5132 C   0  0  0  0  0  0  0  0  0  0  0  0
  162.2766   45.1860  149.5248 N   0  0  0  0  0  0  0  0  0  0  0  0
  160.4415   44.0961  148.6108 N   0  0  0  0  0  0  0  0  0  0  0  0
  159.8610   43.3936  147.6154 C   0  0  0  0  0  0  0  0  0  0  0  0
  1  3  2  1  0  0  0
  1 32  1  0  0  0  0
  1  2  1  0  0  0  0
  1  4  1  0  0  0  0
  4  5  1  0  0  0  0
  6  5  1  1  0  0  0
  7  6  1  0  0  0  0
  8  6  1  0  0  0  0
  8 10  1  0  0  0  0
  8  9  1  6  0  0  0
 10 11  1  6  0  0  0
 12 13  1  1  0  0  0
 12  7  1  0  0  0  0
 12 10  1  0  0  0  0
 14 13  1  0  0  0  0
 15 16  1  0  0  0  0
 15 14  2  0  0  0  0
 16 23  2  0  0  0  0
 17 16  1  0  0  0  0
 17 19  1  0  0  0  0
 18 17  2  0  0  0  0
 19 20  2  0  0  0  0
 20 22  1  0  0  0  0
 20 21  1  0  0  0  0
 23 13  1  0  0  0  0
 23 22  1  0  0  0  0
 24 25  2  6  0  0  0
 24  9  1  0  0  0  0
 24 26  1  0  0  0  0
 27 28  1  0  0  0  0
 27 24  1  0  0  0  0
 29 30  1  6  0  0  0
 29 28  1  0  0  0  0
 31 32  1  1  0  0  0
 31 29  1  0  0  0  0
 33 34  1  1  0  0  0
 33 35  1  0  0  0  0
 33 31  1  0  0  0  0
 35 36  1  6  0  0  0
 35 30  1  0  0  0  0
 36 37  1  0  0  0  0
 38 37  2  0  0  0  0
 39 38  1  0  0  0  0
 40 41  2  0  0  0  0
 40 39  1  0  0  0  0
 42 40  1  0  0  0  0
 43 42  2  0  0  0  0
 43 45  1  0  0  0  0
 44 43  1  0  0  0  0
 45 46  1  0  0  0  0
 46 39  2  0  0  0  0
 46 36  1  0  0  0  0
M  END
>  <CHROM.1>
30.94059491,-35.85041488,158.93873303,46.80246197,146.63419422,2.23280166
-0.06441821,2.70665806

>  <Name>
lig.pdb

>  <RI>
0

>  <Rbt.Current_Directory>
/home/itssahil/PROJECTS/Mol_Feturizer/New_Systems/rnas/4yb0

>  <Rbt.Executable>
rbdock ($Id: //depot/dev/client3/rdock/2013.1/src/exe/rbdock.cxx#4 $)

>  <Rbt.Library>
libRbt.so (2013.1, Build901 2013/11/27)

>  <Rbt.Parameter_File>
/export/apps/rDock/src/rDock_2013.1_src/data/scripts/dock_solv.prm

>  <Rbt.Receptor>
prm/pocket_docking_8.prm

>  <SCORE>
-17.5163

>  <SCORE.INTER>
-17.5262

>  <SCORE.INTER.CONST>
1

>  <SCORE.INTER.POLAR>
0

>  <SCORE.INTER.ROT>
2

>  <SCORE.INTER.SOLV>
16.8252

>  <SCORE.INTER.VDW>
-22.2258

>  <SCORE.INTER.norm>
-0.381004

>  <SCORE.INTRA>
0.0098982

>  <SCORE.INTRA.DIHEDRAL>
-0.044043

>  <SCORE.INTRA.DIHEDRAL.0>
4.74153

>  <SCORE.INTRA.POLAR>
0

>  <SCORE.INTRA.POLAR.0>
0

>  <SCORE.INTRA.REPUL>
0.0126388

>  <SCORE.INTRA.REPUL.0>
0

>  <SCORE.INTRA.SOLV>
0.062445

>  <SCORE.INTRA.SOLV.lig_0>
-60.4375

>  <SCORE.INTRA.VDW>
-0.0624968

>  <SCORE.INTRA.VDW.0>
-1.83689

>  <SCORE.INTRA.norm>
0.000215178

>  <SCORE.RESTR>
0

>  <SCORE.RESTR.CAVITY>
0

>  <SCORE.RESTR.norm>
0

>  <SCORE.SYSTEM>
0

>  <SCORE.SYSTEM.CONST>
0

>  <SCORE.SYSTEM.DIHEDRAL>
0

>  <SCORE.SYSTEM.SOLV>
0

>  <SCORE.SYSTEM.norm>
0

>  <SCORE.heavy>
46

>  <SCORE.norm>
-0.380789

>  <RMSD>
8.296

$$$$
lig.pdb
 OpenBabel11021811523D
libRbt.so/2013.1/901 2013/11/27
 46 52  0  0  0  0  0  0  0  0999 V2000
  157.0226   47.6877  149.6310 P   0  0  2  0  0  0  0  0  0  0  0  0
  156.1760   48.6008  150.4907 O   0  0  0  0  0  0  0  0  0  0  0  0
  158.3325   47.2275  150.2172 O   0  0  0  0  0  0  0  0  0  0  0  0
  157.3164   48.3451  148.1934 O   0  0  0  0  0  0  0  0  0  0  0  0
  156.6529   49.5276  147.7662 C   0  0  0  0  0  0  0  0  0  0  0  0
  156.8110   49.6987  146.2644 C   0  0  1  0  0  0  0  0  0  0  0  0
  157.7960   50.6968  146.0370 O   0  0  0  0  0  0  0  0  0  0  0  0
  157.2744   48.4622  145.5048 C   0  0  1  0  0  0  0  0  0  0  0  0
  156.1732   47.8788  144.8241 O   0  0  0  0  0  0  0  0  0  0  0  0
  158.2246   49.0203  144.4692 C   0  0  1  0  0  0  0  0  0  0  0  0
  157.5015   49.3446  143.2800 O   0  0  0  0  0  0  0  0  0  0  0  0
  158.7292   50.3145  145.0383 C   0  0  2  0  0  0  0  0  0  0  0  0
  160.0442   50.0834  145.6818 N   0  0  0  0  0  0  0  0  0  0  0  0
  160.2367   49.7133  146.9598 C   0  0  0  0  0  0  0  0  0  0  0  0
  161.5595   49.6041  147.2310 N   0  0  0  0  0  0  0  0  0  0  0  0
  162.2406   49.9083  146.1120 C   0  0  0  0  0  0  0  0  0  0  0  0
  163.6655   49.9862  145.7124 C   0  0  0  0  0  0  0  0  0  0  0  0
  164.5703   49.7317  146.5433 O   0  0  0  0  0  0  0  0  0  0  0  0
  163.9440   50.3376  144.4453 N   0  0  0  0  0  0  0  0  0  0  0  0
  162.9692   50.6114  143.5577 C   0  0  0  0  0  0  0  0  0  0  0  0
  163.3082   50.9550  142.2951 N   0  0  0  0  0  0  0  0  0  0  0  0
  161.6512   50.5596  143.8560 N   0  0  0  0  0  0  0  0  0  0  0  0
  161.2326   50.2212  145.0942 C   0  0  0  0  0  0  0  0  0  0  0  0
  156.2257   46.4075  144.1395 P   0  0  2  0  0  0  0  0  0  0  0  0
  157.4633   46.3038  143.2818 O   0  0  0  0  0  0  0  0  0  0  0  0
  154.8474   46.1684  143.5519 O   0  0  0  0  0  0  0  0  0  0  0  0
  156.4383   45.4396  145.4152 O   0  0  0  0  0  0  0  0  0  0  0  0
  155.3263   45.0803  146.2342 C   0  0  0  0  0  0  0  0  0  0  0  0
  155.7374   44.5686  147.6183 C   0  0  1  0  0  0  0  0  0  0  0  0
  156.2856   43.2547  147.4928 O   0  0  0  0  0  0  0  0  0  0  0  0
  156.7837   45.4172  148.3374 C   0  0  1  0  0  0  0  0  0  0  0  0
  156.1938   46.3657  149.2254 O   0  0  0  0  0  0  0  0  0  0  0  0
  157.5851   44.3717  149.0903 C   0  0  1  0  0  0  0  0  0  0  0  0
  156.9900   44.0920  150.3605 O   0  0  0  0  0  0  0  0  0  0  0  0
  157.4870   43.1121  148.2554 C   0  0  2  0  0  0  0  0  0  0  0  0
  158.6393   43.0443  147.3228 N   0  0  0  0  0  0  0  0  0  0  0  0
  158.6009   43.3214  146.0043 C   0  0  0  0  0  0  0  0  0  0  0  0
  159.8234   43.1806  145.4204 N   0  0  0  0  0  0  0  0  0  0  0  0
  160.6814   42.8090  146.3838 C   0  0  0  0  0  0  0  0  0  0  0  0
  162.1268   42.4765  146.4605 C   0  0  0  0  0  0  0  0  0  0  0  0
  162.8790   42.5271  145.4637 O   0  0  0  0  0  0  0  0  0  0  0  0
  162.6180   42.1385  147.6539 N   0  0  0  0  0  0  0  0  0  0  0  0
  161.8535   42.0755  148.7550 C   0  0  0  0  0  0  0  0  0  0  0  0
  162.4488   41.7106  149.9003 N   0  0  0  0  0  0  0  0  0  0  0  0
  160.5290   42.3546  148.7643 N   0  0  0  0  0  0  0  0  0  0  0  0
  159.8948   42.7198  147.6304 C   0  0  0  0  0  0  0  0  0  0  0  0
  1  3  2  1  0  0  0
  1 32  1  0  0  0  0
  1  2  1  0  0  0  0
  1  4  1  0  0  0  0
  4  5  1  0  0  0  0
  6  5  1  1  0  0  0
  7  6  1  0  0  0  0
  8  6  1  0  0  0  0
  8 10  1  0  0  0  0
  8  9  1  6  0  0  0
 10 11  1  6  0  0  0
 12 13  1  1  0  0  0
 12  7  1  0  0  0  0
 12 10  1  0  0  0  0
 14 13  1  0  0  0  0
 15 16  1  0  0  0  0
 15 14  2  0  0  0  0
 16 23  2  0  0  0  0
 17 16  1  0  0  0  0
 17 19  1  0  0  0  0
 18 17  2  0  0  0  0
 19 20  2  0  0  0  0
 20 22  1  0  0  0  0
 20 21  1  0  0  0  0
 23 13  1  0  0  0  0
 23 22  1  0  0  0  0
 24 25  2  6  0  0  0
 24  9  1  0  0  0  0
 24 26  1  0  0  0  0
 27 28  1  0  0  0  0
 27 24  1  0  0  0  0
 29 30  1  6  0  0  0
 29 28  1  0  0  0  0
 31 32  1  1  0  0  0
 31 29  1  0  0  0  0
 33 34  1  1  0  0  0
 33 35  1  0  0  0  0
 33 31  1  0  0  0  0
 35 36  1  6  0  0  0
 35 30  1  0  0  0  0
 36 37  1  0  0  0  0
 38 37  2  0  0  0  0
 39 38  1  0  0  0  0
 40 41  2  0  0  0  0
 40 39  1  0  0  0  0
 42 40  1  0  0  0  0
 43 42  2  0  0  0  0
 43 45  1  0  0  0  0
 44 43  1  0  0  0  0
 45 46  1  0  0  0  0
 46 39  2  0  0  0  0
 46 36  1  0  0  0  0
M  END
>  <CHROM.1>
26.84295436,11.48073902,158.92498301,46.71516578,146.59326219,1.91189546
-0.15336325,2.74507169

>  <Name>
lig.pdb

>  <RI>
0

>  <Rbt.Current_Directory>
/home/itssahil/PROJECTS/Mol_Feturizer/New_Systems/rnas/4yb0

>  <Rbt.Executable>
rbdock ($Id: //depot/dev/client3/rdock/2013.1/src/exe/rbdock.cxx#4 $)

>  <Rbt.Library>
libRbt.so (2013.1, Build901 2013/11/27)

>  <Rbt.Parameter_File>
/export/apps/rDock/src/rDock_2013.1_src/data/scripts/dock_solv.prm

>  <Rbt.Receptor>
prm/pocket_docking_8.prm

>  <SCORE>
-19.7852

>  <SCORE.INTER>
-19.5287

>  <SCORE.INTER.CONST>
1

>  <SCORE.INTER.POLAR>
0

>  <SCORE.INTER.ROT>
2

>  <SCORE.INTER.SOLV>
19.7492

>  <SCORE.INTER.VDW>
-24.5355

>  <SCORE.INTER.norm>
-0.424536

>  <SCORE.INTRA>
-0.25649

>  <SCORE.INTRA.DIHEDRAL>
0.0458719

>  <SCORE.INTRA.DIHEDRAL.0>
4.74153

>  <SCORE.INTRA.POLAR>
0

>  <SCORE.INTRA.POLAR.0>
0

>  <SCORE.INTRA.REPUL>
0

>  <SCORE.INTRA.REPUL.0>
0

>  <SCORE.INTRA.SOLV>
0.082723

>  <SCORE.INTRA.SOLV.lig_0>
-60.4375

>  <SCORE.INTRA.VDW>
-0.320788

>  <SCORE.INTRA.VDW.0>
-1.83689

>  <SCORE.INTRA.norm>
-0.00557587

>  <SCORE.RESTR>
0

>  <SCORE.RESTR.CAVITY>
0

>  <SCORE.RESTR.norm>
0

>  <SCORE.SYSTEM>
0

>  <SCORE.SYSTEM.CONST>
0

>  <SCORE.SYSTEM.DIHEDRAL>
0

>  <SCORE.SYSTEM.SOLV>
0

>  <SCORE.SYSTEM.norm>
0

>  <SCORE.heavy>
46

>  <SCORE.norm>
-0.430112

>  <RMSD>
8.308

$$$$
lig.pdb
 OpenBabel11021811523D
libRbt.so/2013.1/901 2013/11/27
 46 52  0  0  0  0  0  0  0  0999 V2000
  157.0150   47.7050  149.6162 P   0  0  2  0  0  0  0  0  0  0  0  0
  156.1625   48.6179  150.4702 O   0  0  0  0  0  0  0  0  0  0  0  0
  158.3230   47.2485  150.2093 O   0  0  0  0  0  0  0  0  0  0  0  0
  157.3141   48.3603  148.1787 O   0  0  0  0  0  0  0  0  0  0  0  0
  156.6503   49.5407  147.7463 C   0  0  0  0  0  0  0  0  0  0  0  0
  156.8151   49.7095  146.2449 C   0  0  1  0  0  0  0  0  0  0  0  0
  157.7991   50.7091  146.0203 O   0  0  0  0  0  0  0  0  0  0  0  0
  157.2846   48.4724  145.4898 C   0  0  1  0  0  0  0  0  0  0  0  0
  156.1877   47.8856  144.8049 O   0  0  0  0  0  0  0  0  0  0  0  0
  158.2384   49.0306  144.4576 C   0  0  1  0  0  0  0  0  0  0  0  0
  157.5203   49.3513  143.2644 O   0  0  0  0  0  0  0  0  0  0  0  0
  158.7378   50.3269  145.0266 C   0  0  2  0  0  0  0  0  0  0  0  0
  160.0502   50.0995  145.6767 N   0  0  0  0  0  0  0  0  0  0  0  0
  160.2375   49.7323  146.9564 C   0  0  0  0  0  0  0  0  0  0  0  0
  161.5592   49.6262  147.2339 N   0  0  0  0  0  0  0  0  0  0  0  0
  162.2450   49.9295  146.1174 C   0  0  0  0  0  0  0  0  0  0  0  0
  163.6715   50.0095  145.7244 C   0  0  0  0  0  0  0  0  0  0  0  0
  164.5729   49.7583  146.5600 O   0  0  0  0  0  0  0  0  0  0  0  0
  163.9553   50.3590  144.4579 N   0  0  0  0  0  0  0  0  0  0  0  0
  162.9841   50.6290  143.5653 C   0  0  0  0  0  0  0  0  0  0  0  0
  163.3282   50.9709  142.3035 N   0  0  0  0  0  0  0  0  0  0  0  0
  161.6648   50.5753  143.8575 N   0  0  0  0  0  0  0  0  0  0  0  0
  161.2411   50.2385  145.0944 C   0  0  0  0  0  0  0  0  0  0  0  0
  156.2463   46.4132  144.1233 P   0  0  2  0  0  0  0  0  0  0  0  0
  157.4882   46.3104  143.2717 O   0  0  0  0  0  0  0  0  0  0  0  0
  154.8713   46.1703  143.5298 O   0  0  0  0  0  0  0  0  0  0  0  0
  156.4549   45.4481  145.4018 O   0  0  0  0  0  0  0  0  0  0  0  0
  155.3398   45.0880  146.2162 C   0  0  0  0  0  0  0  0  0  0  0  0
  155.7454   44.5797  147.6032 C   0  0  1  0  0  0  0  0  0  0  0  0
  156.2969   43.2666  147.4826 O   0  0  0  0  0  0  0  0  0  0  0  0
  156.7866   45.4317  148.3256 C   0  0  1  0  0  0  0  0  0  0  0  0
  156.1907   46.3806  149.2091 O   0  0  0  0  0  0  0  0  0  0  0  0
  157.5866   44.3892  149.0842 C   0  0  1  0  0  0  0  0  0  0  0  0
  156.9862   44.1105  150.3521 O   0  0  0  0  0  0  0  0  0  0  0  0
  157.4949   43.1278  148.2511 C   0  0  2  0  0  0  0  0  0  0  0  0
  158.6517   43.0606  147.3240 N   0  0  0  0  0  0  0  0  0  0  0  0
  158.6186   43.3334  146.0045 C   0  0  0  0  0  0  0  0  0  0  0  0
  159.8442   43.1945  145.4267 N   0  0  0  0  0  0  0  0  0  0  0  0
  160.6989   42.8287  146.3952 C   0  0  0  0  0  0  0  0  0  0  0  0
  162.1450   42.5010  146.4796 C   0  0  0  0  0  0  0  0  0  0  0  0
  162.9016   42.5508  145.4861 O   0  0  0  0  0  0  0  0  0  0  0  0
  162.6317   42.1684  147.6763 N   0  0  0  0  0  0  0  0  0  0  0  0
  161.8623   42.1065  148.7741 C   0  0  0  0  0  0  0  0  0  0  0  0
  162.4535   41.7472  149.9233 N   0  0  0  0  0  0  0  0  0  0  0  0
  160.5369   42.3816  148.7764 N   0  0  0  0  0  0  0  0  0  0  0  0
  159.9068   42.7411  147.6384 C   0  0  0  0  0  0  0  0  0  0  0  0
  1  3  2  1  0  0  0
  1 32  1  0  0  0  0
  1  2  1  0  0  0  0
  1  4  1  0  0  0  0
  4  5  1  0  0  0  0
  6  5  1  1  0  0  0
  7  6  1  0  0  0  0
  8  6  1  0  0  0  0
  8 10  1  0  0  0  0
  8  9  1  6  0  0  0
 10 11  1  6  0  0  0
 12 13  1  1  0  0  0
 12  7  1  0  0  0  0
 12 10  1  0  0  0  0
 14 13  1  0  0  0  0
 15 16  1  0  0  0  0
 15 14  2  0  0  0  0
 16 23  2  0  0  0  0
 17 16  1  0  0  0  0
 17 19  1  0  0  0  0
 18 17  2  0  0  0  0
 19 20  2  0  0  0  0
 20 22  1  0  0  0  0
 20 21  1  0  0  0  0
 23 13  1  0  0  0  0
 23 22  1  0  0  0  0
 24 25  2  6  0  0  0
 24  9  1  0  0  0  0
 24 26  1  0  0  0  0
 27 28  1  0  0  0  0
 27 24  1  0  0  0  0
 29 30  1  6  0  0  0
 29 28  1  0  0  0  0
 31 32  1  1  0  0  0
 31 29  1  0  0  0  0
 33 34  1  1  0  0  0
 33 35  1  0  0  0  0
 33 31  1  0  0  0  0
 35 36  1  6  0  0  0
 35 30  1  0  0  0  0
 36 37  1  0  0  0  0
 38 37  2  0  0  0  0
 39 38  1  0  0  0  0
 40 41  2  0  0  0  0
 40 39  1  0  0  0  0
 42 40  1  0  0  0  0
 43 42  2  0  0  0  0
 43 45  1  0  0  0  0
 44 43  1  0  0  0  0
 45 46  1  0  0  0  0
 46 39  2  0  0  0  0
 46 36  1  0  0  0  0
M  END
>  <CHROM.1>
26.83388080,11.37759644,158.93359923,46.73124689,146.58920787,1.91256679
-0.14795932,2.74295565

>  <Name>
lig.pdb

>  <RI>
0

>  <Rbt.Current_Directory>
/home/itssahil/PROJECTS/Mol_Feturizer/New_Systems/rnas/4yb0

>  <Rbt.Executable>
rbdock ($Id: //depot/dev/client3/rdock/2013.1/src/exe/rbdock.cxx#4 $)

>  <Rbt.Library>
libRbt.so (2013.1, Build901 2013/11/27)

>  <Rbt.Parameter_File>
/export/apps/rDock/src/rDock_2013.1_src/data/scripts/dock_solv.prm

>  <Rbt.Receptor>
prm/pocket_docking_8.prm

>  <SCORE>
-19.79

>  <SCORE.INTER>
-19.5338

>  <SCORE.INTER.CONST>
1

>  <SCORE.INTER.POLAR>
0

>  <SCORE.INTER.ROT>
2

>  <SCORE.INTER.SOLV>
19.5135

>  <SCORE.INTER.VDW>
-24.4604

>  <SCORE.INTER.norm>
-0.424648

>  <SCORE.INTRA>
-0.256189

>  <SCORE.INTRA.DIHEDRAL>
0.0456022

>  <SCORE.INTRA.DIHEDRAL.0>
4.74153

>  <SCORE.INTRA.POLAR>
0

>  <SCORE.INTRA.POLAR.0>
0

>  <SCORE.INTRA.REPUL>
0

>  <SCORE.INTRA.REPUL.0>
0

>  <SCORE.INTRA.SOLV>
0.0826131

>  <SCORE.INTRA.SOLV.lig_0>
-60.4375

>  <SCORE.INTRA.VDW>
-0.320297

>  <SCORE.INTRA.VDW.0>
-1.83689

>  <SCORE.INTRA.norm>
-0.00556933

>  <SCORE.RESTR>
0

>  <SCORE.RESTR.CAVITY>
0

>  <SCORE.RESTR.norm>
0

>  <SCORE.SYSTEM>
0

>  <SCORE.SYSTEM.CONST>
0

>  <SCORE.SYSTEM.DIHEDRAL>
0

>  <SCORE.SYSTEM.SOLV>
0

>  <SCORE.SYSTEM.norm>
0

>  <SCORE.heavy>
46

>  <SCORE.norm>
-0.430218

>  <RMSD>
8.319

$$$$
lig.pdb
 OpenBabel11021811523D
libRbt.so/2013.1/901 2013/11/27
 46 52  0  0  0  0  0  0  0  0999 V2000
  156.2011   46.6418  144.2149 P   0  0  2  0  0  0  0  0  0  0  0  0
  154.9002   46.1915  143.5869 O   0  0  0  0  0  0  0  0  0  0  0  0
  157.4278   46.5937  143.3408 O   0  0  0  0  0  0  0  0  0  0  0  0
  156.5114   45.8263  145.5653 O   0  0  0  0  0  0  0  0  0  0  0  0
  155.5429   44.9699  146.1568 C   0  0  0  0  0  0  0  0  0  0  0  0
  155.9378   44.6493  147.5889 C   0  0  1  0  0  0  0  0  0  0  0  0
  156.4723   43.3334  147.6134 O   0  0  0  0  0  0  0  0  0  0  0  0
  157.0027   45.5530  148.1974 C   0  0  1  0  0  0  0  0  0  0  0  0
  156.3947   46.4719  149.0933 O   0  0  0  0  0  0  0  0  0  0  0  0
  157.8526   44.5999  149.0074 C   0  0  1  0  0  0  0  0  0  0  0  0
  157.3329   44.5034  150.3350 O   0  0  0  0  0  0  0  0  0  0  0  0
  157.6707   43.2531  148.3698 C   0  0  2  0  0  0  0  0  0  0  0  0
  158.7992   42.9964  147.4439 N   0  0  0  0  0  0  0  0  0  0  0  0
  158.6877   42.6622  146.1465 C   0  0  0  0  0  0  0  0  0  0  0  0
  159.9111   42.4841  145.5926 N   0  0  0  0  0  0  0  0  0  0  0  0
  160.8354   42.7053  146.5442 C   0  0  0  0  0  0  0  0  0  0  0  0
  162.3149   42.6875  146.6260 C   0  0  0  0  0  0  0  0  0  0  0  0
  163.0009   42.4009  145.6155 O   0  0  0  0  0  0  0  0  0  0  0  0
  162.8820   42.9833  147.8081 N   0  0  0  0  0  0  0  0  0  0  0  0
  162.1412   43.2887  148.8902 C   0  0  0  0  0  0  0  0  0  0  0  0
  162.7660   43.5828  150.0523 N   0  0  0  0  0  0  0  0  0  0  0  0
  160.7893   43.3230  148.8846 N   0  0  0  0  0  0  0  0  0  0  0  0
  160.0927   43.0448  147.7620 C   0  0  0  0  0  0  0  0  0  0  0  0
  157.1691   47.7563  149.7151 P   0  0  2  0  0  0  0  0  0  0  0  0
  158.4993   47.3111  150.2723 O   0  0  0  0  0  0  0  0  0  0  0  0
  156.1578   48.4733  150.5898 O   0  0  0  0  0  0  0  0  0  0  0  0
  157.4685   48.6487  148.4023 O   0  0  0  0  0  0  0  0  0  0  0  0
  156.4417   49.4676  147.8442 C   0  0  0  0  0  0  0  0  0  0  0  0
  156.7151   49.8711  146.3919 C   0  0  1  0  0  0  0  0  0  0  0  0
  157.7507   50.8557  146.3619 O   0  0  0  0  0  0  0  0  0  0  0  0
  157.1610   48.7327  145.4770 C   0  0  1  0  0  0  0  0  0  0  0  0
  156.0694   48.1516  144.7650 O   0  0  0  0  0  0  0  0  0  0  0  0
  158.1289   49.4314  144.5405 C   0  0  1  0  0  0  0  0  0  0  0  0
  157.4361   50.0064  143.4291 O   0  0  0  0  0  0  0  0  0  0  0  0
  158.7173   50.5700  145.3473 C   0  0  2  0  0  0  0  0  0  0  0  0
  159.9731   50.1200  145.9975 N   0  0  0  0  0  0  0  0  0  0  0  0
  160.0685   49.5590  147.2192 C   0  0  0  0  0  0  0  0  0  0  0  0
  161.3555   49.2418  147.5328 N   0  0  0  0  0  0  0  0  0  0  0  0
  162.1170   49.5988  146.4865 C   0  0  0  0  0  0  0  0  0  0  0  0
  163.5636   49.5603  146.1522 C   0  0  0  0  0  0  0  0  0  0  0  0
  164.4181   49.0861  146.9313 O   0  0  0  0  0  0  0  0  0  0  0  0
  163.9327   50.0336  144.9608 N   0  0  0  0  0  0  0  0  0  0  0  0
  163.0533   50.5472  144.0868 C   0  0  0  0  0  0  0  0  0  0  0  0
  163.5362   51.0077  142.9232 N   0  0  0  0  0  0  0  0  0  0  0  0
  161.7225   50.6251  144.3214 N   0  0  0  0  0  0  0  0  0  0  0  0
  161.2011   50.1769  145.4827 C   0  0  0  0  0  0  0  0  0  0  0  0
  1  3  2  6  0  0  0
  1 32  1  0  0  0  0
  1  2  1  0  0  0  0
  1  4  1  0  0  0  0
  4  5  1  0  0  0  0
  6  5  1  6  0  0  0
  7  6  1  0  0  0  0
  8  6  1  0  0  0  0
  8 10  1  0  0  0  0
  8  9  1  1  0  0  0
 10 11  1  1  0  0  0
 12 13  1  6  0  0  0
 12  7  1  0  0  0  0
 12 10  1  0  0  0  0
 14 13  1  0  0  0  0
 15 16  1  0  0  0  0
 15 14  2  0  0  0  0
 16 23  2  0  0  0  0
 17 16  1  0  0  0  0
 17 19  1  0  0  0  0
 18 17  2  0  0  0  0
 19 20  2  0  0  0  0
 20 22  1  0  0  0  0
 20 21  1  0  0  0  0
 23 13  1  0  0  0  0
 23 22  1  0  0  0  0
 24 25  2  1  0  0  0
 24  9  1  0  0  0  0
 24 26  1  0  0  0  0
 27 28  1  0  0  0  0
 27 24  1  0  0  0  0
 29 30  1  1  0  0  0
 29 28  1  0  0  0  0
 31 32  1  6  0  0  0
 31 29  1  0  0  0  0
 33 34  1  6  0  0  0
 33 35  1  0  0  0  0
 33 31  1  0  0  0  0
 35 36  1  1  0  0  0
 35 30  1  0  0  0  0
 36 37  1  0  0  0  0
 38 37  2  0  0  0  0
 39 38  1  0  0  0  0
 40 41  2  0  0  0  0
 40 39  1  0  0  0  0
 42 40  1  0  0  0  0
 43 42  2  0  0  0  0
 43 45  1  0  0  0  0
 44 43  1  0  0  0  0
 45 46  1  0  0  0  0
 46 39  2  0  0  0  0
 46 36  1  0  0  0  0
M  END
>  <CHROM.1>
-10.70672841,24.52134430,158.99455085,46.85064023,146.75232907,1.29381725
0.07562331,-0.38968553

>  <Name>
lig.pdb

>  <RI>
0

>  <Rbt.Current_Directory>
/home/itssahil/PROJECTS/Mol_Feturizer/New_Systems/rnas/4yb0

>  <Rbt.Executable>
rbdock ($Id: //depot/dev/client3/rdock/2013.1/src/exe/rbdock.cxx#4 $)

>  <Rbt.Library>
libRbt.so (2013.1, Build901 2013/11/27)

>  <Rbt.Parameter_File>
/export/apps/rDock/src/rDock_2013.1_src/data/scripts/dock_solv.prm

>  <Rbt.Receptor>
prm/pocket_docking_8.prm

>  <SCORE>
-16.7479

>  <SCORE.INTER>
-16.881

>  <SCORE.INTER.CONST>
1

>  <SCORE.INTER.POLAR>
0

>  <SCORE.INTER.ROT>
2

>  <SCORE.INTER.SOLV>
16.1426

>  <SCORE.INTER.VDW>
-21.5682

>  <SCORE.INTER.norm>
-0.366978

>  <SCORE.INTRA>
0.133066

>  <SCORE.INTRA.DIHEDRAL>
0.139257

>  <SCORE.INTRA.DIHEDRAL.0>
4.74153

>  <SCORE.INTRA.POLAR>
0

>  <SCORE.INTRA.POLAR.0>
0

>  <SCORE.INTRA.REPUL>
0

>  <SCORE.INTRA.REPUL.0>
0

>  <SCORE.INTRA.SOLV>
0.179103

>  <SCORE.INTRA.SOLV.lig_0>
-60.4375

>  <SCORE.INTRA.VDW>
-0.0261145

>  <SCORE.INTRA.VDW.0>
-1.83689

>  <SCORE.INTRA.norm>
0.00289273

>  <SCORE.RESTR>
0

>  <SCORE.RESTR.CAVITY>
0

>  <SCORE.RESTR.norm>
0

>  <SCORE.SYSTEM>
0

>  <SCORE.SYSTEM.CONST>
0

>  <SCORE.SYSTEM.DIHEDRAL>
0

>  <SCORE.SYSTEM.SOLV>
0

>  <SCORE.SYSTEM.norm>
0

>  <SCORE.heavy>
46

>  <SCORE.norm>
-0.364085

>  <RMSD>
8.352

$$$$
lig.pdb
 OpenBabel11021811523D
libRbt.so/2013.1/901 2013/11/27
 46 52  0  0  0  0  0  0  0  0999 V2000
  160.0211   48.5019  141.7518 P   0  0  2  0  0  0  0  0  0  0  0  0
  160.3487   48.0183  140.3559 O   0  0  0  0  0  0  0  0  0  0  0  0
  160.8825   49.6076  142.3054 O   0  0  0  0  0  0  0  0  0  0  0  0
  160.0195   47.2876  142.8056 O   0  0  0  0  0  0  0  0  0  0  0  0
  160.0995   45.9333  142.3807 C   0  0  0  0  0  0  0  0  0  0  0  0
  159.6865   45.0078  143.5132 C   0  0  1  0  0  0  0  0  0  0  0  0
  160.8644   44.4420  144.0703 O   0  0  0  0  0  0  0  0  0  0  0  0
  158.9444   45.6689  144.6678 C   0  0  1  0  0  0  0  0  0  0  0  0
  157.5590   45.3699  144.5791 O   0  0  0  0  0  0  0  0  0  0  0  0
  159.4984   44.9699  145.8890 C   0  0  1  0  0  0  0  0  0  0  0  0
  158.7055   43.8181  146.1836 O   0  0  0  0  0  0  0  0  0  0  0  0
  160.8571   44.4723  145.4894 C   0  0  2  0  0  0  0  0  0  0  0  0
  161.8835   45.4381  145.9482 N   0  0  0  0  0  0  0  0  0  0  0  0
  162.1931   46.5984  145.3439 C   0  0  0  0  0  0  0  0  0  0  0  0
  163.1849   47.2348  146.0122 N   0  0  0  0  0  0  0  0  0  0  0  0
  163.5279   46.4771  147.0691 C   0  0  0  0  0  0  0  0  0  0  0  0
  164.5027   46.5678  148.1816 C   0  0  0  0  0  0  0  0  0  0  0  0
  165.2700   47.5562  148.2712 O   0  0  0  0  0  0  0  0  0  0  0  0
  164.5323   45.5632  149.0740 N   0  0  0  0  0  0  0  0  0  0  0  0
  163.7076   44.5037  148.9724 C   0  0  0  0  0  0  0  0  0  0  0  0
  163.7783   43.5248  149.9019 N   0  0  0  0  0  0  0  0  0  0  0  0
  162.7964   44.3583  147.9838 N   0  0  0  0  0  0  0  0  0  0  0  0
  162.6626   45.2944  147.0201 C   0  0  0  0  0  0  0  0  0  0  0  0
  156.4263   46.1179  145.4700 P   0  0  2  0  0  0  0  0  0  0  0  0
  156.8529   46.1152  146.9178 O   0  0  0  0  0  0  0  0  0  0  0  0
  155.0974   45.5201  145.0474 O   0  0  0  0  0  0  0  0  0  0  0  0
  156.5198   47.6412  144.9406 O   0  0  0  0  0  0  0  0  0  0  0  0
  155.8848   48.0144  143.7184 C   0  0  0  0  0  0  0  0  0  0  0  0
  156.4330   49.3171  143.1274 C   0  0  1  0  0  0  0  0  0  0  0  0
  155.9656   50.4220  143.9043 O   0  0  0  0  0  0  0  0  0  0  0  0
  157.9561   49.4184  143.0865 C   0  0  1  0  0  0  0  0  0  0  0  0
  158.4922   49.0074  141.8296 O   0  0  0  0  0  0  0  0  0  0  0  0
  158.1879   50.8972  143.3349 C   0  0  1  0  0  0  0  0  0  0  0  0
  158.1411   51.6325  142.1090 O   0  0  0  0  0  0  0  0  0  0  0  0
  157.0171   51.3507  144.1817 C   0  0  2  0  0  0  0  0  0  0  0  0
  157.3758   51.2508  145.6182 N   0  0  0  0  0  0  0  0  0  0  0  0
  156.5215   51.3797  146.6526 C   0  0  0  0  0  0  0  0  0  0  0  0
  157.1489   51.2237  147.8514 N   0  0  0  0  0  0  0  0  0  0  0  0
  158.4433   50.9802  147.5916 C   0  0  0  0  0  0  0  0  0  0  0  0
  159.6685   50.7329  148.3939 C   0  0  0  0  0  0  0  0  0  0  0  0
  159.6532   50.6897  149.6428 O   0  0  0  0  0  0  0  0  0  0  0  0
  160.8077   50.5288  147.7304 N   0  0  0  0  0  0  0  0  0  0  0  0
  160.8752   50.5590  146.3905 C   0  0  0  0  0  0  0  0  0  0  0  0
  162.0755   50.3544  145.8278 N   0  0  0  0  0  0  0  0  0  0  0  0
  159.8065   50.7864  145.5915 N   0  0  0  0  0  0  0  0  0  0  0  0
  158.5843   51.0016  146.1219 C   0  0  0  0  0  0  0  0  0  0  0  0
  1  3  2  1  0  0  0
  1 32  1  0  0  0  0
  1  2  1  0  0  0  0
  1  4  1  0  0  0  0
  4  5  1  0  0  0  0
  6  5  1  6  0  0  0
  7  6  1  0  0  0  0
  8  6  1  0  0  0  0
  8 10  1  0  0  0  0
  8  9  1  6  0  0  0
 10 11  1  6  0  0  0
 12 13  1  6  0  0  0
 12  7  1  0  0  0  0
 12 10  1  0  0  0  0
 14 13  1  0  0  0  0
 15 16  1  0  0  0  0
 15 14  2  0  0  0  0
 16 23  2  0  0  0  0
 17 16  1  0  0  0  0
 17 19  1  0  0  0  0
 18 17  2  0  0  0  0
 19 20  2  0  0  0  0
 20 22  1  0  0  0  0
 20 21  1  0  0  0  0
 23 13  1  0  0  0  0
 23 22  1  0  0  0  0
 24 25  2  1  0  0  0
 24  9  1  0  0  0  0
 24 26  1  0  0  0  0
 27 28  1  0  0  0  0
 27 24  1  0  0  0  0
 29 30  1  1  0  0  0
 29 28  1  0  0  0  0
 31 32  1  6  0  0  0
 31 29  1  0  0  0  0
 33 34  1  6  0  0  0
 33 35  1  0  0  0  0
 33 31  1  0  0  0  0
 35 36  1  1  0  0  0
 35 30  1  0  0  0  0
 36 37  1  0  0  0  0
 38 37  2  0  0  0  0
 39 38  1  0  0  0  0
 40 41  2  0  0  0  0
 40 39  1  0  0  0  0
 42 40  1  0  0  0  0
 43 42  2  0  0  0  0
 43 45  1  0  0  0  0
 44 43  1  0  0  0  0
 45 46  1  0  0  0  0
 46 39  2  0  0  0  0
 46 36  1  0  0  0  0
M  END
>  <CHROM.1>
36.55749048,-54.85301147,159.63184469,47.80545287,145.32935269,2.85110750
-0.73768279,0.41163335

>  <Name>
lig.pdb

>  <RI>
0

>  <Rbt.Current_Directory>
/home/itssahil/PROJECTS/Mol_Feturizer/New_Systems/rnas/4yb0

>  <Rbt.Executable>
rbdock ($Id: //depot/dev/client3/rdock/2013.1/src/exe/rbdock.cxx#4 $)

>  <Rbt.Library>
libRbt.so (2013.1, Build901 2013/11/27)

>  <Rbt.Parameter_File>
/export/apps/rDock/src/rDock_2013.1_src/data/scripts/dock_solv.prm

>  <Rbt.Receptor>
prm/pocket_docking_7.prm

>  <SCORE>
-10.0987

>  <SCORE.INTER>
-10.0901

>  <SCORE.INTER.CONST>
1

>  <SCORE.INTER.POLAR>
0

>  <SCORE.INTER.ROT>
2

>  <SCORE.INTER.SOLV>
7.91567

>  <SCORE.INTER.VDW>
-14.2986

>  <SCORE.INTER.norm>
-0.219351

>  <SCORE.INTRA>
-0.00859011

>  <SCORE.INTRA.DIHEDRAL>
0.00114663

>  <SCORE.INTRA.DIHEDRAL.0>
4.74153

>  <SCORE.INTRA.POLAR>
0

>  <SCORE.INTRA.POLAR.0>
0

>  <SCORE.INTRA.REPUL>
0

>  <SCORE.INTRA.REPUL.0>
0

>  <SCORE.INTRA.SOLV>
0.859811

>  <SCORE.INTRA.SOLV.lig_0>
-60.4375

>  <SCORE.INTRA.VDW>
-0.439069

>  <SCORE.INTRA.VDW.0>
-1.83689

>  <SCORE.INTRA.norm>
-0.000186742

>  <SCORE.RESTR>
0

>  <SCORE.RESTR.CAVITY>
0

>  <SCORE.RESTR.norm>
0

>  <SCORE.SYSTEM>
0

>  <SCORE.SYSTEM.CONST>
0

>  <SCORE.SYSTEM.DIHEDRAL>
0

>  <SCORE.SYSTEM.SOLV>
0

>  <SCORE.SYSTEM.norm>
0

>  <SCORE.heavy>
46

>  <SCORE.norm>
-0.219537

>  <RMSD>
8.439

$$$$
lig.pdb
 OpenBabel11021811523D
libRbt.so/2013.1/901 2013/11/27
 46 52  0  0  0  0  0  0  0  0999 V2000
  156.2628   46.9190  144.1922 P   0  0  2  0  0  0  0  0  0  0  0  0
  154.9819   46.4887  143.5112 O   0  0  0  0  0  0  0  0  0  0  0  0
  157.5202   46.8707  143.3629 O   0  0  0  0  0  0  0  0  0  0  0  0
  156.5162   46.0836  145.5423 O   0  0  0  0  0  0  0  0  0  0  0  0
  155.5192   45.2287  146.0867 C   0  0  0  0  0  0  0  0  0  0  0  0
  155.8584   44.8864  147.5281 C   0  0  1  0  0  0  0  0  0  0  0  0
  156.3802   43.5654  147.5550 O   0  0  0  0  0  0  0  0  0  0  0  0
  156.9081   45.7724  148.1868 C   0  0  1  0  0  0  0  0  0  0  0  0
  156.2758   46.6855  149.0717 O   0  0  0  0  0  0  0  0  0  0  0  0
  157.7195   44.8013  149.0149 C   0  0  1  0  0  0  0  0  0  0  0  0
  157.1505   44.6928  150.3212 O   0  0  0  0  0  0  0  0  0  0  0  0
  157.5493   43.4645  148.3535 C   0  0  2  0  0  0  0  0  0  0  0  0
  158.7087   43.2092  147.4663 N   0  0  0  0  0  0  0  0  0  0  0  0
  158.6562   43.0636  146.1308 C   0  0  0  0  0  0  0  0  0  0  0  0
  159.8913   42.8261  145.6277 N   0  0  0  0  0  0  0  0  0  0  0  0
  160.7634   42.8162  146.6515 C   0  0  0  0  0  0  0  0  0  0  0  0
  162.2238   42.6243  146.8136 C   0  0  0  0  0  0  0  0  0  0  0  0
  162.9471   42.3997  145.8134 O   0  0  0  0  0  0  0  0  0  0  0  0
  162.7327   42.6969  148.0554 N   0  0  0  0  0  0  0  0  0  0  0  0
  161.9519   42.9368  149.1258 C   0  0  0  0  0  0  0  0  0  0  0  0
  162.5192   43.0039  150.3509 N   0  0  0  0  0  0  0  0  0  0  0  0
  160.6143   43.1206  149.0486 N   0  0  0  0  0  0  0  0  0  0  0  0
  159.9745   43.0719  147.8606 C   0  0  0  0  0  0  0  0  0  0  0  0
  157.0381   47.9547  149.7381 P   0  0  2  0  0  0  0  0  0  0  0  0
  158.3430   47.4902  150.3377 O   0  0  0  0  0  0  0  0  0  0  0  0
  156.0016   48.6698  150.5844 O   0  0  0  0  0  0  0  0  0  0  0  0
  157.3932   48.8609  148.4489 O   0  0  0  0  0  0  0  0  0  0  0  0
  156.3948   49.6962  147.8642 C   0  0  0  0  0  0  0  0  0  0  0  0
  156.7248   50.1156  146.4283 C   0  0  1  0  0  0  0  0  0  0  0  0
  157.7694   51.0909  146.4489 O   0  0  0  0  0  0  0  0  0  0  0  0
  157.1939   48.9847  145.5156 C   0  0  1  0  0  0  0  0  0  0  0  0
  156.1242   48.4228  144.7566 O   0  0  0  0  0  0  0  0  0  0  0  0
  158.2016   49.6864  144.6243 C   0  0  1  0  0  0  0  0  0  0  0  0
  157.5551   50.2817  143.4959 O   0  0  0  0  0  0  0  0  0  0  0  0
  158.7700   50.8092  145.4668 C   0  0  2  0  0  0  0  0  0  0  0  0
  159.9971   50.3395  146.1565 N   0  0  0  0  0  0  0  0  0  0  0  0
  160.0505   49.8192  147.3987 C   0  0  0  0  0  0  0  0  0  0  0  0
  161.3195   49.4691  147.7481 N   0  0  0  0  0  0  0  0  0  0  0  0
  162.1121   49.7621  146.7049 C   0  0  0  0  0  0  0  0  0  0  0  0
  163.5622   49.6618  146.4004 C   0  0  0  0  0  0  0  0  0  0  0  0
  164.3851   49.1863  147.2120 O   0  0  0  0  0  0  0  0  0  0  0  0
  163.9694   50.0793  145.2006 N   0  0  0  0  0  0  0  0  0  0  0  0
  163.1247   50.5916  144.2923 C   0  0  0  0  0  0  0  0  0  0  0  0
  163.6446   50.9935  143.1230 N   0  0  0  0  0  0  0  0  0  0  0  0
  161.7934   50.7239  144.4982 N   0  0  0  0  0  0  0  0  0  0  0  0
  161.2355   50.3355  145.6640 C   0  0  0  0  0  0  0  0  0  0  0  0
  1  3  2  6  0  0  0
  1 32  1  0  0  0  0
  1  2  1  0  0  0  0
  1  4  1  0  0  0  0
  4  5  1  0  0  0  0
  6  5  1  6  0  0  0
  7  6  1  0  0  0  0
  8  6  1  0  0  0  0
  8 10  1  0  0  0  0
  8  9  1  1  0  0  0
 10 11  1  1  0  0  0
 12 13  1  6  0  0  0
 12  7  1  0  0  0  0
 12 10  1  0  0  0  0
 14 13  1  0  0  0  0
 15 16  1  0  0  0  0
 15 14  2  0  0  0  0
 16 23  2  0  0  0  0
 17 16  1  0  0  0  0
 17 19  1  0  0  0  0
 18 17  2  0  0  0  0
 19 20  2  0  0  0  0
 20 22  1  0  0  0  0
 20 21  1  0  0  0  0
 23 13  1  0  0  0  0
 23 22  1  0  0  0  0
 24 25  2  1  0  0  0
 24  9  1  0  0  0  0
 24 26  1  0  0  0  0
 27 28  1  0  0  0  0
 27 24  1  0  0  0  0
 29 30  1  1  0  0  0
 29 28  1  0  0  0  0
 31 32  1  6  0  0  0
 31 29  1  0  0  0  0
 33 34  1  6  0  0  0
 33 35  1  0  0  0  0
 33 31  1  0  0  0  0
 35 36  1  1  0  0  0
 35 30  1  0  0  0  0
 36 37  1  0  0  0  0
 38 37  2  0  0  0  0
 39 38  1  0  0  0  0
 40 41  2  0  0  0  0
 40 39  1  0  0  0  0
 42 40  1  0  0  0  0
 43 42  2  0  0  0  0
 43 45  1  0  0  0  0
 44 43  1  0  0  0  0
 45 46  1  0  0  0  0
 46 39  2  0  0  0  0
 46 36  1  0  0  0  0
M  END
>  <CHROM.1>
-1.54924490,21.22876161,158.95594597,47.00430780,146.83377597,1.40628083
0.06988999,-0.37900758

>  <Name>
lig.pdb

>  <RI>
0

>  <Rbt.Current_Directory>
/home/itssahil/PROJECTS/Mol_Feturizer/New_Systems/rnas/4yb0

>  <Rbt.Executable>
rbdock ($Id: //depot/dev/client3/rdock/2013.1/src/exe/rbdock.cxx#4 $)

>  <Rbt.Library>
libRbt.so (2013.1, Build901 2013/11/27)

>  <Rbt.Parameter_File>
/export/apps/rDock/src/rDock_2013.1_src/data/scripts/dock_solv.prm

>  <Rbt.Receptor>
prm/pocket_docking_8.prm

>  <SCORE>
-16.4882

>  <SCORE.INTER>
-16.4868

>  <SCORE.INTER.CONST>
1

>  <SCORE.INTER.POLAR>
0

>  <SCORE.INTER.ROT>
2

>  <SCORE.INTER.SOLV>
15.3062

>  <SCORE.INTER.VDW>
-21.0266

>  <SCORE.INTER.norm>
-0.358408

>  <SCORE.INTRA>
-0.00179293

>  <SCORE.INTRA.DIHEDRAL>
0.11447

>  <SCORE.INTRA.DIHEDRAL.0>
4.74153

>  <SCORE.INTRA.POLAR>
0

>  <SCORE.INTRA.POLAR.0>
0

>  <SCORE.INTRA.REPUL>
0

>  <SCORE.INTRA.REPUL.0>
0

>  <SCORE.INTRA.SOLV>
0.13603

>  <SCORE.INTRA.SOLV.lig_0>
-60.4375

>  <SCORE.INTRA.VDW>
-0.127043

>  <SCORE.INTRA.VDW.0>
-1.83689

>  <SCORE.INTRA.norm>
-3.89768e-05

>  <SCORE.RESTR>
0.000339586

>  <SCORE.RESTR.CAVITY>
0.000339586

>  <SCORE.RESTR.norm>
7.38231e-06

>  <SCORE.SYSTEM>
0

>  <SCORE.SYSTEM.CONST>
0

>  <SCORE.SYSTEM.DIHEDRAL>
0

>  <SCORE.SYSTEM.SOLV>
0

>  <SCORE.SYSTEM.norm>
0

>  <SCORE.heavy>
46

>  <SCORE.norm>
-0.35844

>  <RMSD>
8.470

$$$$
