@<TRIPOS>MOLECULE
4yb0_rdock.pdb
 1780 1993 0 0 0
SMALL
GASTEIGER

@<TRIPOS>ATOM
      1    P.3    166.3170   31.6880  126.7370 Pac     2  G2          0.3942
      2  OP1      166.4280   33.0260  126.0800 O.3     2  G2         -0.1425
      3  OP2      166.5460   31.5510  128.2020 O.3     2  G2         -0.1425
      4  O5'      164.9030   31.0070  126.4170 O.3     2  G2         -0.2926
      5  C5'      164.4150   30.8840  125.0880 C.3     2  G2          0.1829
      6  C4'      163.3990   29.7700  124.9770 C.3     2  G2          0.1774
      7  O4'      164.0480   28.4970  125.2330 O.3     2  G2         -0.3307
      8  C3'      162.2400   29.8060  125.9670 C.3     2  G2          0.1860
      9  O3'      161.1870   30.6590  125.5530 O.3     2  G2         -0.3112
     10  C2'      161.8260   28.3420  126.0570 C.3     2  G2          0.2309
     11  O2'      161.0320   27.9870  124.9340 O.3     2  G2         -0.2156
     12  C1'      163.1760   27.6370  125.9340 C.3     2  G2          0.2408
     13   N9      163.7950   27.3370  127.2390 N.ar    2  G2         -0.2693
     14   C8      164.9240   27.9250  127.7640 C.ar    2  G2          0.1817
     15   N7      165.2630   27.4570  128.9380 N.ar    2  G2         -0.2173
     16   C5      164.3020   26.4910  129.1990 C.ar    2  G2          0.1748
     17   C6      164.1550   25.6340  130.3150 C.ar    2  G2          0.3023
     18   O6      164.8540   25.5370  131.3480 O.2     2  G2         -0.2633
     19   N.1     163.0410   24.8270  130.1360 N.ar    2  G2         -0.1709
     20   C.2     162.1820   24.8140  129.0690 C.ar    2  G2          0.2606
     21   N.2     161.1650   23.9350  129.1400 N.pl3   2  G2         -0.0859
     22   N.3     162.3070   25.6030  128.0220 N.ar    2  G2         -0.1918
     23   C4      163.3860   26.4040  128.1590 C.ar    2  G2          0.1723
     24    P.3    160.3780   31.5460  126.6230 P.3     3  U3          0.2141
     25  OP1      159.5030   32.4410  125.8230 O.2     3  U3         -0.5172
     26  OP2      161.3160   32.1050  127.6330 O.3     3  U3         -0.4373
     27  O5'      159.4640   30.4970  127.3990 O.3     3  U3         -0.3114
     28  C5'      158.4790   29.7370  126.7180 C.3     3  U3          0.1812
     29  C4'      157.9880   28.6080  127.5820 C.3     3  U3          0.1773
     30  O4'      159.0910   27.7080  127.8640 O.3     3  U3         -0.3307
     31  C3'      157.4760   29.0070  128.9550 C.3     3  U3          0.1860
     32  O3'      156.1350   29.4810  128.9250 O.3     3  U3         -0.3112
     33  C2'      157.6740   27.7290  129.7680 C.3     3  U3          0.2309
     34  O2'      156.6330   26.7990  129.5140 O.3     3  U3         -0.2156
     35  C1'      158.9620   27.1740  129.1630 C.3     3  U3          0.2420
     36   N.1     160.1670   27.5320  129.9530 N.ar    3  U3         -0.2534
     37   C.2     160.4470   26.8010  131.1010 C.ar    3  U3          0.3546
     38   O.2     159.7450   25.8880  131.4870 O.2     3  U3         -0.2443
     39   N.3     161.5830   27.1760  131.7880 N.ar    3  U3         -0.1530
     40   C4      162.4620   28.1930  131.4420 C.ar    3  U3          0.2846
     41   O4      163.4460   28.4210  132.1510 O.2     3  U3         -0.2650
     42   C5      162.1140   28.9010  130.2440 C.ar    3  U3          0.0814
     43   C6      161.0080   28.5550  129.5660 C.ar    3  U3          0.0870
     44    P.3    155.6070   30.5900  129.9770 P.3     4  A4          0.2141
     45  OP1      154.1410   30.7350  129.7900 O.2     4  A4         -0.5172
     46  OP2      156.4570   31.8020  129.9320 O.3     4  A4         -0.4373
     47  O5'      155.8420   29.9140  131.3910 O.3     4  A4         -0.3114
     48  C5'      155.1580   28.7260  131.7580 C.3     4  A4          0.1812
     49  C4'      155.4040   28.4140  133.2050 C.3     4  A4          0.1773
     50  O4'      156.8100   28.0690  133.4050 O.3     4  A4         -0.3307
     51  C3'      155.1270   29.5880  134.1450 C.3     4  A4          0.1860
     52  O3'      154.6560   29.0690  135.3830 O.3     4  A4         -0.3112
     53  C2'      156.5180   30.1760  134.3440 C.3     4  A4          0.2309
     54  O2'      156.6880   31.0030  135.4770 O.3     4  A4         -0.2156
     55  C1'      157.3360   28.9000  134.4230 C.3     4  A4          0.2408
     56   N9      158.7780   29.0990  134.2780 N.ar    4  A4         -0.2693
     57   C8      159.4970   29.8080  133.3420 C.ar    4  A4          0.1816
     58   N7      160.7910   29.8090  133.5730 N.ar    4  A4         -0.2193
     59   C5      160.9120   29.0710  134.7450 C.ar    4  A4          0.1518
     60   C6      162.0190   28.7000  135.5170 C.ar    4  A4          0.1919
     61   N6      163.2570   29.0580  135.1830 N.pl3   4  A4         -0.1054
     62   N.1     161.8040   27.9540  136.6370 N.ar    4  A4         -0.2040
     63   C.2     160.5430   27.6030  136.9390 C.ar    4  A4          0.2016
     64   N.3     159.4170   27.9010  136.2890 N.ar    4  A4         -0.2048
     65   C4      159.6810   28.6400  135.1960 C.ar    4  A4          0.1692
     66    P.3    153.0920   28.7980  135.5770 P.3     5  C5          0.2141
     67  OP1      152.9160   27.4120  136.0840 O.3     5  C5         -0.4373
     68  OP2      152.3970   29.2800  134.3560 O.2     5  C5         -0.5172
     69  O5'      152.6950   29.7710  136.7560 O.3     5  C5         -0.3114
     70  C5'      152.7520   31.1830  136.6190 C.3     5  C5          0.1812
     71  C4'      152.0090   31.8260  137.7590 C.3     5  C5          0.1773
     72  O4'      150.6250   32.0080  137.3520 O.3     5  C5         -0.3307
     73  C3'      151.9740   30.9700  139.0230 C.3     5  C5          0.1860
     74  O3'      151.9310   31.7930  140.1940 O.3     5  C5         -0.3112
     75  C2'      150.6670   30.1910  138.8630 C.3     5  C5          0.2309
     76  O2'      150.1100   29.7230  140.0730 O.3     5  C5         -0.2156
     77  C1'      149.7680   31.2120  138.1540 C.3     5  C5          0.2420
     78   N.1     148.7710   30.6010  137.2510 N.ar    5  C5         -0.2535
     79   C.2     147.5060   31.1820  137.1170 C.ar    5  C5          0.3532
     80   O.2     147.2540   32.2060  137.7570 O.2     5  C5         -0.2443
     81   N.3     146.5900   30.6270  136.2850 N.ar    5  C5         -0.1739
     82   C4      146.8830   29.5200  135.5930 C.ar    5  C5          0.1759
     83   N.4     145.9470   29.0030  134.7850 N.pl3   5  C5         -0.1070
     84   C5      148.1610   28.8970  135.7080 C.ar    5  C5          0.0566
     85   C6      149.0590   29.4630  136.5360 C.ar    5  C5          0.0850
     86    P.3    153.1810   31.8480  141.2160 P.3     6  A6          0.2141
     87  OP1      152.6510   32.0440  142.5900 O.3     6  A6         -0.4373
     88  OP2      154.1550   32.8270  140.6600 O.2     6  A6         -0.5172
     89  O5'      153.8670   30.4050  141.1230 O.3     6  A6         -0.3114
     90  C5'      153.4670   29.3050  141.9400 C.3     6  A6          0.1812
     91  C4'      154.5780   28.2760  142.0550 C.3     6  A6          0.1773
     92  O4'      154.9460   27.7710  140.7370 O.3     6  A6         -0.3307
     93  C3'      155.8790   28.7970  142.6580 C.3     6  A6          0.1860
     94  O3'      155.8760   28.6840  144.0690 O.3     6  A6         -0.3112
     95  C2'      156.9530   27.9340  142.0030 C.3     6  A6          0.2309
     96  O2'      157.0990   26.7080  142.7000 O.3     6  A6         -0.2156
     97  C1'      156.3470   27.6460  140.6290 C.3     6  A6          0.2408
     98   N9      156.8090   28.5950  139.5950 N.ar    6  A6         -0.2693
     99   C8      156.0060   29.1630  138.6380 C.ar    6  A6          0.1816
    100   N7      156.6120   29.9780  137.8120 N.ar    6  A6         -0.2193
    101   C5      157.9230   29.9450  138.2510 C.ar    6  A6          0.1518
    102   C6      159.0660   30.6110  137.7790 C.ar    6  A6          0.1919
    103   N6      159.0450   31.4450  136.7320 N.pl3   6  A6         -0.1054
    104   N.1     160.2300   30.3770  138.4310 N.ar    6  A6         -0.2040
    105   C.2     160.2270   29.5340  139.4800 C.ar    6  A6          0.2016
    106   N.3     159.2100   28.8450  140.0090 N.ar    6  A6         -0.2048
    107   C4      158.0670   29.0980  139.3460 C.ar    6  A6          0.1692
    108    P.3    156.2800   29.9230  145.0100 P.3     7  C7          0.2141
    109  OP1      156.4640   29.3880  146.3840 O.3     7  C7         -0.4373
    110  OP2      155.3220   31.0350  144.7300 O.2     7  C7         -0.5172
    111  O5'      157.7290   30.3650  144.5210 O.3     7  C7         -0.3114
    112  C5'      158.8860   29.6150  144.8630 C.3     7  C7          0.1812
    113  C4'      160.1130   30.3390  144.3990 C.3     7  C7          0.1773
    114  O4'      160.1200   30.3750  142.9550 O.3     7  C7         -0.3307
    115  C3'      160.1700   31.8050  144.8130 C.3     7  C7          0.1860
    116  O3'      160.7400   31.9450  146.0950 O.3     7  C7         -0.3112
    117  C2'      161.0040   32.4550  143.7190 C.3     7  C7          0.2309
    118  O2'      162.3870   32.2770  143.9880 O.3     7  C7         -0.2156
    119  C1'      160.6450   31.6060  142.4980 C.3     7  C7          0.2420
    120   N.1     159.6660   32.2380  141.5840 N.ar    7  C7         -0.2535
    121   C.2     160.0490   33.2980  140.7490 C.ar    7  C7          0.3532
    122   O.2     161.2020   33.7400  140.7970 O.2     7  C7         -0.2443
    123   N.3     159.1440   33.8180  139.8990 N.ar    7  C7         -0.1739
    124   C4      157.9080   33.3250  139.8560 C.ar    7  C7          0.1759
    125   N.4     157.0500   33.8730  139.0060 N.pl3   7  C7         -0.1070
    126   C5      157.4840   32.2470  140.6800 C.ar    7  C7          0.0566
    127   C6      158.3970   31.7400  141.5170 C.ar    7  C7          0.0850
    128    P.3    160.1740   33.0220  147.1250 P.3     8  G8          0.2141
    129  OP1      160.8870   32.8350  148.4120 O.3     8  G8         -0.4373
    130  OP2      158.6960   32.9290  147.1140 O.2     8  G8         -0.5172
    131  O5'      160.6570   34.4050  146.4880 O.3     8  G8         -0.3114
    132  C5'      162.0400   34.6770  146.2750 C.3     8  G8          0.1812
    133  C4'      162.2530   36.0220  145.6140 C.3     8  G8          0.1773
    134  O4'      161.6520   36.0070  144.2830 O.3     8  G8         -0.3307
    135  C3'      161.6260   37.2150  146.3490 C.3     8  G8          0.1860
    136  O3'      162.4090   38.3810  146.1050 O.3     8  G8         -0.3112
    137  C2'      160.2950   37.3700  145.6180 C.3     8  G8          0.2309
    138  O2'      159.6760   38.6380  145.7410 O.3     8  G8         -0.2156
    139  C1'      160.7220   37.0640  144.1810 C.3     8  G8          0.2408
    140   N9      159.6250   36.6950  143.2820 N.ar    8  G8         -0.2693
    141   C8      158.5310   35.9190  143.5620 C.ar    8  G8          0.1817
    142   N7      157.7020   35.8160  142.5590 N.ar    8  G8         -0.2173
    143   C5      158.2760   36.5900  141.5640 C.ar    8  G8          0.1748
    144   C6      157.8290   36.8680  140.2440 C.ar    8  G8          0.3023
    145   O6      156.8040   36.4690  139.6830 O.2     8  G8         -0.2633
    146   N.1     158.7020   37.7020  139.5550 N.ar    8  G8         -0.1709
    147   C.2     159.8530   38.2110  140.0900 C.ar    8  G8          0.2606
    148   N.2     160.5620   38.9840  139.2640 N.pl3   8  G8         -0.0859
    149   N.3     160.2880   37.9600  141.3200 N.ar    8  G8         -0.1918
    150   C4      159.4550   37.1450  141.9930 C.ar    8  G8          0.1723
    151    P.3    163.6250   38.8060  147.0660 P.3     9  A9          0.2141
    152  OP1      164.6300   37.7070  147.1120 O.2     9  A9         -0.5172
    153  OP2      163.0310   39.3960  148.2830 O.3     9  A9         -0.4373
    154  O5'      164.3120   39.9850  146.2590 O.3     9  A9         -0.3114
    155  C5'      164.5590   39.8230  144.8730 C.3     9  A9          0.1812
    156  C4'      165.7970   40.5490  144.4290 C.3     9  A9          0.1773
    157  O4'      166.0500   40.1810  143.0530 O.3     9  A9         -0.3307
    158  C3'      165.6790   42.0630  144.4440 C.3     9  A9          0.1860
    159  O3'      166.9730   42.6370  144.5950 O.3     9  A9         -0.3112
    160  C2'      165.1550   42.3650  143.0470 C.3     9  A9          0.2309
    161  O2'      165.4510   43.6710  142.5880 O.3     9  A9         -0.2156
    162  C1'      165.8550   41.2950  142.2040 C.3     9  A9          0.2408
    163   N9      165.0450   40.8190  141.0780 N.ar    9  A9         -0.2693
    164   C8      163.8920   40.0680  141.1670 C.ar    9  A9          0.1816
    165   N7      163.3580   39.7660  140.0130 N.ar    9  A9         -0.2193
    166   C5      164.2260   40.3510  139.0990 C.ar    9  A9          0.1518
    167   C6      164.2180   40.3950  137.6920 C.ar    9  A9          0.1919
    168   N6      163.2710   39.8130  136.9440 N.pl3   9  A9         -0.1054
    169   N.1     165.2260   41.0650  137.0840 N.ar    9  A9         -0.2040
    170   C.2     166.1650   41.6420  137.8420 C.ar    9  A9          0.2016
    171   N.3     166.2750   41.6770  139.1630 N.ar    9  A9         -0.2048
    172   C4      165.2690   40.9990  139.7380 C.ar    9  A9          0.1692
    173    P.3    167.5790   42.9600  146.0450 P.3    10  C10         0.2141
    174  OP1      169.0050   42.5570  145.9790 O.2    10  C10        -0.5172
    175  OP2      166.7070   42.4730  147.1440 O.3    10  C10        -0.4373
    176  O5'      167.5640   44.5380  146.1150 O.3    10  C10        -0.3114
    177  C5'      166.3610   45.2690  145.9700 C.3    10  C10         0.1812
    178  C4'      166.6570   46.6980  145.6030 C.3    10  C10         0.1773
    179  O4'      167.7110   47.2030  146.4700 O.3    10  C10        -0.3307
    180  C3'      167.1470   46.9130  144.1760 C.3    10  C10         0.1860
    181  O3'      166.6990   48.1890  143.7190 O.3    10  C10        -0.3112
    182  C2'      168.6640   46.9330  144.3430 C.3    10  C10         0.2309
    183  O2'      169.3640   47.6060  143.3180 O.3    10  C10        -0.2156
    184  C1'      168.8130   47.6330  145.6900 C.3    10  C10         0.2420
    185   N.1     170.0420   47.2770  146.4130 N.ar   10  C10        -0.2535
    186   C.2     171.0440   48.2390  146.5600 C.ar   10  C10         0.3532
    187   O.2     170.8660   49.3850  146.0790 O.2    10  C10        -0.2443
    188   N.3     172.1720   47.8940  147.2340 N.ar   10  C10        -0.1739
    189   C4      172.3090   46.6620  147.7420 C.ar   10  C10         0.1759
    190   N.4     173.4290   46.3750  148.3990 N.pl3  10  C10        -0.1070
    191   C5      171.3060   45.6600  147.6160 C.ar   10  C10         0.0566
    192   C6      170.2020   46.0140  146.9430 C.ar   10  C10         0.0850
    193    P.3    165.6630   48.2850  142.4970 P.3    11  A11         0.2141
    194  OP1      165.8070   49.6410  141.9020 O.2    11  A11        -0.5172
    195  OP2      164.3310   47.8290  142.9810 O.3    11  A11        -0.4373
    196  O5'      166.2300   47.2300  141.4410 O.3    11  A11        -0.3114
    197  C5'      167.4710   47.4500  140.7830 C.3    11  A11         0.1812
    198  C4'      167.4190   47.0520  139.3300 C.3    11  A11         0.1773
    199  O4'      167.1000   45.6450  139.2120 O.3    11  A11        -0.3307
    200  C3'      166.3690   47.7430  138.4750 C.3    11  A11         0.1860
    201  O3'      166.7950   49.0200  138.0300 O.3    11  A11        -0.3112
    202  C2'      166.1710   46.7640  137.3310 C.3    11  A11         0.2309
    203  O2'      167.2050   46.9200  136.3720 O.3    11  A11        -0.2156
    204  C1'      166.3690   45.4180  138.0300 C.3    11  A11         0.2408
    205   N9      165.1090   44.7220  138.3620 N.ar   11  A11        -0.2693
    206   C8      164.5840   44.4640  139.6010 C.ar   11  A11         0.1816
    207   N7      163.4600   43.7890  139.5800 N.ar   11  A11        -0.2193
    208   C5      163.2400   43.5700  138.2250 C.ar   11  A11         0.1518
    209   C6      162.2170   42.9070  137.5130 C.ar   11  A11         0.1919
    210   N6      161.1670   42.2930  138.0780 N.pl3  11  A11        -0.1054
    211   N.1     162.3130   42.8830  136.1660 N.ar   11  A11        -0.2040
    212   C.2     163.3560   43.4780  135.5760 C.ar   11  A11         0.2016
    213   N.3     164.3720   44.1260  136.1360 N.ar   11  A11        -0.2048
    214   C4      164.2470   44.1420  137.4730 C.ar   11  A11         0.1692
    215    P.3    165.7630   50.2470  137.9690 P.3    12  A12         0.2141
    216  OP1      166.5610   51.4700  137.6790 O.2    12  A12        -0.5172
    217  OP2      164.9120   50.2180  139.1900 O.3    12  A12        -0.4373
    218  O5'      164.8340   49.9080  136.7160 O.3    12  A12        -0.3114
    219  C5'      165.3600   49.8060  135.3970 C.3    12  A12         0.1812
    220  C4'      164.3470   49.2150  134.4430 C.3    12  A12         0.1773
    221  O4'      164.2260   47.7870  134.6910 O.3    12  A12        -0.3307
    222  C3'      162.9170   49.7280  134.5680 C.3    12  A12         0.1860
    223  O3'      162.6800   50.9620  133.9140 O.3    12  A12        -0.3112
    224  C2'      162.1080   48.5730  133.9990 C.3    12  A12         0.2309
    225  O2'      162.2220   48.5350  132.5870 O.3    12  A12        -0.2156
    226  C1'      162.8760   47.3860  134.5540 C.3    12  A12         0.2408
    227   N9      162.3690   46.9810  135.8820 N.ar   12  A12        -0.2693
    228   C8      162.9060   47.2850  137.1060 C.ar   12  A12         0.1816
    229   N7      162.2520   46.7760  138.1210 N.ar   12  A12        -0.2193
    230   C5      161.1940   46.1000  137.5340 C.ar   12  A12         0.1518
    231   C6      160.1290   45.3440  138.0690 C.ar   12  A12         0.1919
    232   N6      159.9330   45.1390  139.3750 N.pl3  12  A12        -0.1054
    233   N.1     159.2490   44.7880  137.2060 N.ar   12  A12        -0.2040
    234   C.2     159.4430   44.9920  135.8990 C.ar   12  A12         0.2016
    235   N.3     160.4000   45.6840  135.2780 N.ar   12  A12        -0.2048
    236   C4      161.2550   46.2220  136.1580 C.ar   12  A12         0.1692
    237    P.3    161.4530   51.8950  134.3760 P.3    13  U13         0.2141
    238  OP1      161.5100   53.1410  133.5750 O.2    13  U13        -0.5172
    239  OP2      161.4210   51.9660  135.8590 O.3    13  U13        -0.4373
    240  O5'      160.1540   51.0930  133.9290 O.3    13  U13        -0.3114
    241  C5'      159.8530   50.9050  132.5580 C.3    13  U13         0.1812
    242  C4'      158.5520   50.1610  132.3670 C.3    13  U13         0.1773
    243  O4'      158.6500   48.7970  132.8750 O.3    13  U13        -0.3307
    244  C3'      157.3410   50.7160  133.0930 C.3    13  U13         0.1860
    245  O3'      156.7940   51.8790  132.5080 O.3    13  U13        -0.3112
    246  C2'      156.3990   49.5260  133.0820 C.3    13  U13         0.2309
    247  O2'      155.8520   49.3590  131.7840 O.3    13  U13        -0.2156
    248  C1'      157.3780   48.3810  133.3540 C.3    13  U13         0.2420
    249   N.1     157.4550   48.0700  134.8090 N.ar   13  U13        -0.2534
    250   C.2     156.4690   47.2500  135.3380 C.ar   13  U13         0.3546
    251   O.2     155.5720   46.7680  134.6790 O.2    13  U13        -0.2443
    252   N.3     156.5570   46.9900  136.6790 N.ar   13  U13        -0.1530
    253   C4      157.5100   47.4670  137.5500 C.ar   13  U13         0.2846
    254   O4      157.4430   47.1390  138.7320 O.2    13  U13        -0.2650
    255   C5      158.4970   48.3180  136.9530 C.ar   13  U13         0.0814
    256   C6      158.4300   48.5850  135.6400 C.ar   13  U13         0.0870
    257    P.3    156.1370   52.9890  133.4670 P.3    14  A14         0.2141
    258  OP1      155.8690   54.2220  132.6790 O.2    14  A14        -0.5172
    259  OP2      156.9940   53.0770  134.6800 O.3    14  A14        -0.4373
    260  O5'      154.7620   52.3280  133.9370 O.3    14  A14        -0.3114
    261  C5'      153.7330   52.0270  133.0060 C.3    14  A14         0.1812
    262  C4'      152.7670   50.9950  133.5400 C.3    14  A14         0.1773
    263  O4'      153.4860   49.8480  134.0590 O.3    14  A14        -0.3307
    264  C3'      151.8880   51.4100  134.7060 C.3    14  A14         0.1860
    265  O3'      150.8020   52.2210  134.3240 O.3    14  A14        -0.3112
    266  C2'      151.4630   50.0680  135.2790 C.3    14  A14         0.2309
    267  O2'      150.4750   49.4650  134.4530 O.3    14  A14        -0.2156
    268  C1'      152.7560   49.2720  135.1290 C.3    14  A14         0.2408
    269   N9      153.5720   49.3060  136.3610 N.ar   14  A14        -0.2693
    270   C8      154.7020   50.0350  136.6380 C.ar   14  A14         0.1816
    271   N7      155.1870   49.8190  137.8400 N.ar   14  A14        -0.2193
    272   C5      154.3190   48.8850  138.3900 C.ar   14  A14         0.1518
    273   C6      154.2720   48.2350  139.6390 C.ar   14  A14         0.1919
    274   N6      155.1530   48.4290  140.6200 N.pl3  14  A14        -0.1054
    275   N.1     153.2720   47.3610  139.8650 N.ar   14  A14        -0.2040
    276   C.2     152.3800   47.1550  138.8910 C.ar   14  A14         0.2016
    277   N.3     152.3170   47.6970  137.6780 N.ar   14  A14        -0.2048
    278   C4      153.3250   48.5650  137.4900 C.ar   14  A14         0.1692
    279    P.3    150.2770   53.3420  135.3320 P.3    15  C15         0.2141
    280  OP1      148.8780   53.6670  134.9410 O.2    15  C15        -0.5172
    281  OP2      151.3120   54.4080  135.3540 O.3    15  C15        -0.4373
    282  O5'      150.3070   52.6110  136.7490 O.3    15  C15        -0.3114
    283  C5'      149.2360   52.7270  137.6730 C.3    15  C15         0.1812
    284  C4'      148.6950   51.3770  138.0710 C.3    15  C15         0.1773
    285  O4'      149.7830   50.4250  138.2340 O.3    15  C15        -0.3307
    286  C3'      147.9740   51.3460  139.4040 C.3    15  C15         0.1860
    287  O3'      146.6400   51.7810  139.3110 O.3    15  C15        -0.3112
    288  C2'      148.1110   49.8980  139.8380 C.3    15  C15         0.2309
    289  O2'      147.1740   49.0920  139.1460 O.3    15  C15        -0.2156
    290  C1'      149.5110   49.5620  139.3240 C.3    15  C15         0.2420
    291   N.1     150.5640   49.7570  140.3550 N.ar   15  C15        -0.2535
    292   C.2     150.5390   49.1040  141.6050 C.ar   15  C15         0.3532
    293   O.2     149.6160   48.3320  141.9090 O.2    15  C15        -0.2443
    294   N.3     151.5390   49.3340  142.4910 N.ar   15  C15        -0.1739
    295   C4      152.5320   50.1700  142.1740 C.ar   15  C15         0.1759
    296   N.4     153.4970   50.3710  143.0690 N.pl3  15  C15        -0.1070
    297   C5      152.5880   50.8460  140.9280 C.ar   15  C15         0.0566
    298   C6      151.5970   50.6030  140.0670 C.ar   15  C15         0.0850
    299    P.3    146.1770   53.0150  140.2140 P.3    16  U16         0.2141
    300  OP1      144.8300   53.4820  139.7890 O.2    16  U16        -0.5172
    301  OP2      147.3270   53.9590  140.2050 O.3    16  U16        -0.4373
    302  O5'      146.0060   52.3630  141.6560 O.3    16  U16        -0.3114
    303  C5'      145.2010   51.2060  141.8170 C.3    16  U16         0.1812
    304  C4'      145.5350   50.4720  143.0870 C.3    16  U16         0.1773
    305  O4'      146.9160   50.0470  143.0590 O.3    16  U16        -0.3307
    306  C3'      145.4290   51.2870  144.3640 C.3    16  U16         0.1860
    307  O3'      144.0970   51.4030  144.8310 O.3    16  U16        -0.3112
    308  C2'      146.3430   50.5320  145.3190 C.3    16  U16         0.2309
    309  O2'      145.6660   49.4080  145.8640 O.3    16  U16        -0.2156
    310  C1'      147.4420   50.0400  144.3700 C.3    16  U16         0.2420
    311   N.1     148.6610   50.8810  144.4150 N.ar   16  U16        -0.2534
    312   C.2     149.4850   50.7010  145.4990 C.ar   16  U16         0.3546
    313   O.2     149.2350   49.9110  146.3870 O.2    16  U16        -0.2443
    314   N.3     150.6120   51.4800  145.5120 N.ar   16  U16        -0.1530
    315   C4      150.9990   52.4060  144.5720 C.ar   16  U16         0.2846
    316   O4      152.0520   53.0170  144.7400 O.2    16  U16        -0.2650
    317   C5      150.1000   52.5330  143.4700 C.ar   16  U16         0.0814
    318   C6      148.9910   51.7820  143.4310 C.ar   16  U16         0.0870
    319    P.3    143.6090   52.7660  145.5160 P.3    17  A17         0.2141
    320  OP1      142.1490   52.6810  145.7770 O.3    17  A17        -0.4373
    321  OP2      144.1940   53.8930  144.7410 O.2    17  A17        -0.5172
    322  O5'      144.3700   52.7800  146.9040 O.3    17  A17        -0.3114
    323  C5'      144.2760   51.6870  147.8030 C.3    17  A17         0.1812
    324  C4'      145.2180   51.8940  148.9550 C.3    17  A17         0.1773
    325  O4'      146.5650   51.9890  148.4180 O.3    17  A17        -0.3307
    326  C3'      144.9590   53.1820  149.7490 C.3    17  A17         0.1860
    327  O3'      144.9740   52.9550  151.1550 O.3    17  A17        -0.3112
    328  C2'      146.1130   54.1060  149.3540 C.3    17  A17         0.2309
    329  O2'      146.5610   54.9340  150.4040 O.3    17  A17        -0.2156
    330  C1'      147.2130   53.1300  148.9360 C.3    17  A17         0.2408
    331   N9      148.0830   53.6940  147.9030 N.ar   17  A17        -0.2693
    332   C8      147.7270   54.0510  146.6310 C.ar   17  A17         0.1816
    333   N7      148.7060   54.5880  145.9440 N.ar   17  A17        -0.2193
    334   C5      149.7660   54.6000  146.8370 C.ar   17  A17         0.1518
    335   C6      151.0920   55.0440  146.7140 C.ar   17  A17         0.1919
    336   N6      151.5810   55.5750  145.5910 N.pl3  17  A17        -0.1054
    337   N.1     151.9070   54.9130  147.7880 N.ar   17  A17        -0.2040
    338   C.2     151.4090   54.3720  148.9140 C.ar   17  A17         0.2016
    339   N.3     150.1750   53.9190  149.1480 N.ar   17  A17        -0.2048
    340   C4      149.3970   54.0590  148.0520 C.ar   17  A17         0.1692
    341    P.3    143.9230   53.7530  152.0700 P.3    18  A18         0.2141
    342  OP1      142.5680   53.2970  151.6870 O.2    18  A18        -0.5172
    343  OP2      144.2520   55.2050  152.0330 O.3    18  A18        -0.4373
    344  O5'      144.2160   53.2460  153.5450 O.3    18  A18        -0.3114
    345  C5'      144.0200   51.8900  153.9050 C.3    18  A18         0.1812
    346  C4'      144.6830   51.6000  155.2230 C.3    18  A18         0.1773
    347  O4'      146.1250   51.6270  155.0560 O.3    18  A18        -0.3307
    348  C3'      144.4220   52.6200  156.3160 C.3    18  A18         0.1860
    349  O3'      143.1700   52.4450  156.9550 O.3    18  A18        -0.3112
    350  C2'      145.6270   52.4430  157.2300 C.3    18  A18         0.2309
    351  O2'      145.4790   51.2790  158.0330 O.3    18  A18        -0.2156
    352  C1'      146.7330   52.1720  156.2120 C.3    18  A18         0.2408
    353   N9      147.4890   53.3880  155.8330 N.ar   18  A18        -0.2693
    354   C8      147.5480   53.9850  154.6020 C.ar   18  A18         0.1816
    355   N7      148.3250   55.0390  154.5410 N.ar   18  A18        -0.2193
    356   C5      148.8310   55.1490  155.8260 C.ar   18  A18         0.1518
    357   C6      149.7250   56.0720  156.4260 C.ar   18  A18         0.1919
    358   N6      150.2900   57.0960  155.7810 N.pl3  18  A18        -0.1054
    359   N.1     150.0240   55.8980  157.7350 N.ar   18  A18        -0.2040
    360   C.2     149.4590   54.8640  158.3910 C.ar   18  A18         0.2016
    361   N.3     148.6120   53.9300  157.9390 N.ar   18  A18        -0.2048
    362   C4      148.3300   54.1320  156.6330 C.ar   18  A18         0.1692
    363    P.3    142.2550   53.7270  157.2650 P.3    19  A19         0.2141
    364  OP1      141.0070   53.2500  157.9180 O.3    19  A19        -0.4373
    365  OP2      142.1530   54.5500  156.0260 O.2    19  A19        -0.5172
    366  O5'      143.1050   54.5400  158.3420 O.3    19  A19        -0.3114
    367  C5'      143.4000   53.9700  159.6100 C.3    19  A19         0.1812
    368  C4'      144.3600   54.8240  160.4070 C.3    19  A19         0.1773
    369  O4'      145.6520   54.8780  159.7490 O.3    19  A19        -0.3307
    370  C3'      143.9720   56.2790  160.5800 C.3    19  A19         0.1860
    371  O3'      143.0110   56.4590  161.6050 O.3    19  A19        -0.3112
    372  C2'      145.3140   56.9440  160.8740 C.3    19  A19         0.2309
    373  O2'      145.6820   56.7490  162.2320 O.3    19  A19        -0.2156
    374  C1'      146.2610   56.1310  159.9910 C.3    19  A19         0.2408
    375   N9      146.5190   56.7930  158.7000 N.ar   19  A19        -0.2693
    376   C8      145.9530   56.5110  157.4850 C.ar   19  A19         0.1816
    377   N7      146.3820   57.2810  156.5130 N.ar   19  A19        -0.2193
    378   C5      147.2920   58.1290  157.1270 C.ar   19  A19         0.1518
    379   C6      148.0960   59.1830  156.6420 C.ar   19  A19         0.1919
    380   N6      148.1290   59.6040  155.3720 N.pl3  19  A19        -0.1054
    381   N.1     148.8880   59.8130  157.5340 N.ar   19  A19        -0.2040
    382   C.2     148.8660   59.4080  158.8120 C.ar   19  A19         0.2016
    383   N.3     148.1550   58.4390  159.3820 N.ar   19  A19        -0.2048
    384   C4      147.3810   57.8330  158.4760 C.ar   19  A19         0.1692
    385    P.3    141.7630   57.4480  161.3910 P.3    20  C20         0.2141
    386  OP1      141.1040   57.6100  162.7180 O.3    20  C20        -0.4373
    387  OP2      140.9750   56.9660  160.2230 O.2    20  C20        -0.5172
    388  O5'      142.4460   58.8350  160.9990 O.3    20  C20        -0.3114
    389  C5'      143.2760   59.5230  161.9200 C.3    20  C20         0.1812
    390  C4'      144.0560   60.6220  161.2440 C.3    20  C20         0.1773
    391  O4'      144.9250   60.0640  160.2320 O.3    20  C20        -0.3307
    392  C3'      143.2370   61.6480  160.4880 C.3    20  C20         0.1860
    393  O3'      142.6410   62.6160  161.3360 O.3    20  C20        -0.3112
    394  C2'      144.2510   62.2140  159.5000 C.3    20  C20         0.2309
    395  O2'      145.1260   63.1270  160.1370 O.3    20  C20        -0.2156
    396  C1'      145.0580   60.9730  159.1590 C.3    20  C20         0.2420
    397   N.1     144.5760   60.3180  157.9300 N.ar   20  C20        -0.2535
    398   C.2     144.9490   60.8240  156.6750 C.ar   20  C20         0.3532
    399   O.2     145.6730   61.8260  156.5890 O.2    20  C20        -0.2443
    400   N.3     144.5060   60.1920  155.5670 N.ar   20  C20        -0.1739
    401   C4      143.7270   59.1100  155.6770 C.ar   20  C20         0.1759
    402   N.4     143.3030   58.5100  154.5600 N.pl3  20  C20        -0.1070
    403   C5      143.3360   58.5830  156.9410 C.ar   20  C20         0.0566
    404   C6      143.7820   59.2110  158.0350 C.ar   20  C20         0.0850
    405    P.3    141.2220   63.2460  160.9530 P.3    21  C21         0.2141
    406  OP1      140.7780   64.0820  162.1010 O.3    21  C21        -0.4373
    407  OP2      140.3370   62.1510  160.4850 O.2    21  C21        -0.5172
    408  O5'      141.5550   64.1890  159.7100 O.3    21  C21        -0.3114
    409  C5'      142.4750   65.2670  159.8340 C.3    21  C21         0.1812
    410  C4'      142.6180   66.0440  158.5450 C.3    21  C21         0.1773
    411  O4'      143.3180   65.2450  157.5610 O.3    21  C21        -0.3307
    412  C3'      141.3250   66.4300  157.8490 C.3    21  C21         0.1860
    413  O3'      140.7050   67.5700  158.4080 O.3    21  C21        -0.3112
    414  C2'      141.7590   66.6110  156.3970 C.3    21  C21         0.2309
    415  O2'      142.3770   67.8730  156.1960 O.3    21  C21        -0.2156
    416  C1'      142.8310   65.5340  156.2660 C.3    21  C21         0.2420
    417   N.1     142.3190   64.2860  155.6540 N.ar   21  C21        -0.2535
    418   C.2     141.9940   64.2610  154.2910 C.ar   21  C21         0.3532
    419   O.2     142.1090   65.2940  153.6160 O.2    21  C21        -0.2443
    420   N.3     141.5470   63.1140  153.7300 N.ar   21  C21        -0.1739
    421   C4      141.4280   62.0130  154.4790 C.ar   21  C21         0.1759
    422   N.4     140.9910   60.8890  153.9000 N.pl3  21  C21        -0.1070
    423   C5      141.7610   62.0100  155.8650 C.ar   21  C21         0.0566
    424   C6      142.1990   63.1540  156.4020 C.ar   21  C21         0.0850
    425    P.3    139.1080   67.6920  158.3500 P.3    22  A22         0.2141
    426  OP1      138.7130   68.8130  159.2440 O.3    22  A22        -0.4373
    427  OP2      138.5450   66.3290  158.5590 O.2    22  A22        -0.5172
    428  O5'      138.8100   68.0790  156.8330 O.3    22  A22        -0.3114
    429  C5'      139.4460   69.1930  156.2230 C.3    22  A22         0.1812
    430  C4'      139.0950   69.2800  154.7610 C.3    22  A22         0.1773
    431  O4'      139.7610   68.2180  154.0320 O.3    22  A22        -0.3307
    432  C3'      137.6240   69.0880  154.4390 C.3    22  A22         0.1860
    433  O3'      136.8660   70.2690  154.6210 O.3    22  A22        -0.3112
    434  C2'      137.6470   68.5880  152.9990 C.3    22  A22         0.2309
    435  O2'      137.7720   69.6740  152.0930 O.3    22  A22        -0.2156
    436  C1'      138.9390   67.7710  152.9730 C.3    22  A22         0.2408
    437   N9      138.7090   66.3230  153.1350 N.ar   22  A22        -0.2693
    438   C8      138.8940   65.5680  154.2700 C.ar   22  A22         0.1816
    439   N7      138.6220   64.2990  154.1040 N.ar   22  A22        -0.2193
    440   C5      138.2380   64.2110  152.7680 C.ar   22  A22         0.1518
    441   C6      137.8310   63.1210  151.9630 C.ar   22  A22         0.1919
    442   N6      137.7390   61.8640  152.4250 N.pl3  22  A22        -0.1054
    443   N.1     137.5230   63.3710  150.6620 N.ar   22  A22        -0.2040
    444   C.2     137.6210   64.6330  150.2200 C.ar   22  A22         0.2016
    445   N.3     137.9870   65.7370  150.8810 N.ar   22  A22        -0.2048
    446   C4      138.2910   65.4510  152.1600 C.ar   22  A22         0.1692
    447    P.3    135.3480   70.1670  155.1270 P.3    23  U23         0.2141
    448  OP1      134.8620   71.5490  155.4140 O.2    23  U23        -0.5172
    449  OP2      135.3170   69.1540  156.2150 O.3    23  U23        -0.4373
    450  O5'      134.5520   69.6270  153.8490 O.3    23  U23        -0.3114
    451  C5'      134.0960   70.5300  152.8500 C.3    23  U23         0.1812
    452  C4'      133.6690   69.8250  151.5810 C.3    23  U23         0.1773
    453  O4'      134.6490   68.8220  151.2010 O.3    23  U23        -0.3307
    454  C3'      132.3630   69.0500  151.6350 C.3    23  U23         0.1860
    455  O3'      131.2120   69.8730  151.5570 O.3    23  U23        -0.3112
    456  C2'      132.5080   68.0660  150.4730 C.3    23  U23         0.2309
    457  O2'      132.2070   68.6760  149.2250 O.3    23  U23        -0.2156
    458  C1'      134.0080   67.7640  150.5130 C.3    23  U23         0.2420
    459   N.1     134.2990   66.4910  151.2060 N.ar   23  U23        -0.2534
    460   C.2     133.9730   65.3190  150.5580 C.ar   23  U23         0.3546
    461   O.2     133.4650   65.2870  149.4460 O.2    23  U23        -0.2443
    462   N.3     134.2720   64.1840  151.2690 N.ar   23  U23        -0.1530
    463   C4      134.8430   64.1040  152.5280 C.ar   23  U23         0.2846
    464   O4      135.0520   63.0050  153.0430 O.2    23  U23        -0.2650
    465   C5      135.1360   65.3650  153.1300 C.ar   23  U23         0.0814
    466   C6      134.8610   66.4830  152.4590 C.ar   23  U23         0.0870
    467    P.3    129.9080   69.4870  152.4110 P.3    24  C24         0.2141
    468  OP1      128.9110   70.5710  152.2270 O.2    24  C24        -0.5172
    469  OP2      130.3520   69.1660  153.7890 O.3    24  C24        -0.4373
    470  O5'      129.3710   68.1480  151.7190 O.3    24  C24        -0.3114
    471  C5'      128.7760   68.1810  150.4280 C.3    24  C24         0.1812
    472  C4'      128.5800   66.8060  149.8200 C.3    24  C24         0.1773
    473  O4'      129.8250   66.0550  149.7820 O.3    24  C24        -0.3307
    474  C3'      127.6250   65.8400  150.5010 C.3    24  C24         0.1860
    475  O3'      126.2540   66.1590  150.3390 O.3    24  C24        -0.3112
    476  C2'      128.0120   64.5170  149.8490 C.3    24  C24         0.2309
    477  O2'      127.4950   64.4390  148.5270 O.3    24  C24        -0.2156
    478  C1'      129.5310   64.6650  149.7580 C.3    24  C24         0.2420
    479   N.1     130.1980   63.9770  150.8860 N.ar   24  C24        -0.2535
    480   C.2     130.4430   62.5930  150.7830 C.ar   24  C24         0.3532
    481   O.2     130.1260   61.9680  149.7570 O.2    24  C24        -0.2443
    482   N.3     131.0390   61.9600  151.8120 N.ar   24  C24        -0.1739
    483   C4      131.3690   62.6450  152.9090 C.ar   24  C24         0.1759
    484   N.4     131.9560   61.9770  153.9000 N.pl3  24  C24        -0.1070
    485   C5      131.1260   64.0390  153.0480 C.ar   24  C24         0.0566
    486   C6      130.5350   64.6570  152.0210 C.ar   24  C24         0.0850
    487    P.3    125.1910   65.7100  151.4650 P.3    25  C25         0.2141
    488  OP1      123.8670   66.2960  151.1210 O.2    25  C25        -0.5172
    489  OP2      125.8040   65.9970  152.7880 O.3    25  C25        -0.4373
    490  O5'      125.1180   64.1200  151.3490 O.3    25  C25        -0.3114
    491  C5'      124.6510   63.4890  150.1670 C.3    25  C25         0.1812
    492  C4'      124.8810   61.9920  150.1890 C.3    25  C25         0.1773
    493  O4'      126.2960   61.6720  150.3300 O.3    25  C25        -0.3307
    494  C3'      124.2290   61.2200  151.3230 C.3    25  C25         0.1860
    495  O3'      122.8340   61.0380  151.1380 O.3    25  C25        -0.3112
    496  C2'      125.0300   59.9210  151.3230 C.3    25  C25         0.2309
    497  O2'      124.6290   59.0870  150.2460 O.3    25  C25        -0.2156
    498  C1'      126.4360   60.4390  151.0140 C.3    25  C25         0.2420
    499   N.1     127.2500   60.6210  152.2440 N.ar   25  C25        -0.2535
    500   C.2     127.8730   59.4810  152.7630 C.ar   25  C25         0.3532
    501   O.2     127.7150   58.4040  152.1760 O.2    25  C25        -0.2443
    502   N.3     128.6330   59.5660  153.8790 N.ar   25  C25        -0.1739
    503   C4      128.7890   60.7380  154.4900 C.ar   25  C25         0.1759
    504   N.4     129.5530   60.7670  155.5880 N.pl3  25  C25        -0.1070
    505   C5      128.1650   61.9210  153.9880 C.ar   25  C25         0.0566
    506   C6      127.4120   61.8200  152.8810 C.ar   25  C25         0.0850
    507    P.3    121.7960   61.2430  152.3540 P.3    26  G26         0.2141
    508  OP1      120.4760   61.5890  151.7650 O.2    26  G26        -0.5172
    509  OP2      122.3940   62.1140  153.3990 O.3    26  G26        -0.4373
    510  O5'      121.6930   59.7920  152.9910 O.3    26  G26        -0.3114
    511  C5'      122.7300   59.3320  153.8280 C.3    26  G26         0.1812
    512  C4'      122.7940   57.8360  153.9410 C.3    26  G26         0.1773
    513  O4'      124.1650   57.4350  153.6580 O.3    26  G26        -0.3307
    514  C3'      122.5230   57.3410  155.3590 C.3    26  G26         0.1860
    515  O3'      121.1560   57.0440  155.6010 O.3    26  G26        -0.3112
    516  C2'      123.4950   56.1780  155.5300 C.3    26  G26         0.2309
    517  O2'      123.0010   54.9960  154.9170 O.3    26  G26        -0.2156
    518  C1'      124.6840   56.6840  154.7280 C.3    26  G26         0.2408
    519   N9      125.5100   57.6130  155.5250 N.ar   26  G26        -0.2693
    520   C8      125.5540   58.9790  155.3580 C.ar   26  G26         0.1817
    521   N7      126.3440   59.5960  156.1850 N.ar   26  G26        -0.2173
    522   C5      126.8760   58.5720  156.9510 C.ar   26  G26         0.1748
    523   C6      127.8060   58.6320  158.0250 C.ar   26  G26         0.3023
    524   O6      128.3740   59.6210  158.5180 O.2    26  G26        -0.2633
    525   N.1     128.0650   57.3600  158.5240 N.ar   26  G26        -0.1709
    526   C.2     127.5040   56.1910  158.0570 C.ar   26  G26         0.2606
    527   N.2     127.8940   55.0690  158.6820 N.pl3  26  G26        -0.0859
    528   N.3     126.6340   56.1210  157.0620 N.ar   26  G26        -0.1918
    529   C4      126.3670   57.3420  156.5600 C.ar   26  G26         0.1723
    530    P.3    120.3000   57.9890  156.5840 P.3    27  C27         0.2141
    531  OP1      119.0570   57.2560  156.9310 O.3    27  C27        -0.4373
    532  OP2      120.1730   59.3500  155.9930 O.2    27  C27        -0.5172
    533  O5'      121.2160   58.0910  157.8870 O.3    27  C27        -0.3114
    534  C5'      121.1040   59.2010  158.7650 C.3    27  C27         0.1812
    535  C4'      121.1770   58.7670  160.2050 C.3    27  C27         0.1773
    536  O4'      120.0630   57.8890  160.4970 O.3    27  C27        -0.3307
    537  C3'      122.4080   57.9620  160.5990 C.3    27  C27         0.1860
    538  O3'      123.5190   58.7910  160.9170 O.3    27  C27        -0.3112
    539  C2'      121.9180   57.1440  161.7920 C.3    27  C27         0.2309
    540  O2'      121.9670   57.9140  162.9850 O.3    27  C27        -0.2156
    541  C1'      120.4490   56.9100  161.4360 C.3    27  C27         0.2420
    542   N.1     120.1720   55.5660  160.8710 N.ar   27  C27        -0.2535
    543   C.2     120.1210   54.4440  161.7080 C.ar   27  C27         0.3532
    544   O.2     120.3470   54.5690  162.9180 O.2    27  C27        -0.2443
    545   N.3     119.8330   53.2370  161.1710 N.ar   27  C27        -0.1739
    546   C4      119.5980   53.1190  159.8610 C.ar   27  C27         0.1759
    547   N.4     119.3230   51.9090  159.3680 N.pl3  27  C27        -0.1070
    548   C5      119.6350   54.2400  158.9860 C.ar   27  C27         0.0566
    549   C6      119.9170   55.4280  159.5360 C.ar   27  C27         0.0850
    550    P.3    124.9500   58.5640  160.2130 P.3    28  G28         0.2141
    551  OP1      125.9140   59.6140  160.6450 O.3    28  G28        -0.4373
    552  OP2      124.6400   58.3600  158.7760 O.2    28  G28        -0.5172
    553  O5'      125.4930   57.2020  160.8330 O.3    28  G28        -0.3114
    554  C5'      125.4890   56.9850  162.2370 C.3    28  G28         0.1812
    555  C4'      125.5250   55.5120  162.5510 C.3    28  G28         0.1773
    556  O4'      124.2970   54.8800  162.1090 O.3    28  G28        -0.3307
    557  C3'      126.6270   54.7470  161.8460 C.3    28  G28         0.1860
    558  O3'      127.8410   54.8290  162.5680 O.3    28  G28        -0.3112
    559  C2'      126.0630   53.3330  161.7520 C.3    28  G28         0.2309
    560  O2'      126.2530   52.6620  162.9880 O.3    28  G28        -0.2156
    561  C1'      124.5660   53.5980  161.5860 C.3    28  G28         0.2408
    562   N9      124.0850   53.5660  160.1870 N.ar   28  G28        -0.2693
    563   C8      124.1420   54.6160  159.3010 C.ar   28  G28         0.1817
    564   N7      123.6140   54.3550  158.1360 N.ar   28  G28        -0.2173
    565   C5      123.1570   53.0500  158.2460 C.ar   28  G28         0.1748
    566   C6      122.4880   52.2340  157.2840 C.ar   28  G28         0.3023
    567   O6      122.1600   52.4980  156.1150 O.2    28  G28        -0.2633
    568   N.1     122.2000   50.9760  157.8060 N.ar   28  G28        -0.1709
    569   C.2     122.5100   50.5570  159.0750 C.ar   28  G28         0.2606
    570   N.2     122.1350   49.2980  159.3560 N.pl3  28  G28        -0.0859
    571   N.3     123.1310   51.3080  159.9810 N.ar   28  G28        -0.1918
    572   C4      123.4310   52.5430  159.5090 C.ar   28  G28         0.1723
    573    P.3    129.2420   54.9710  161.8020 P.3    29  A29         0.2141
    574  OP1      130.2140   55.4990  162.7980 O.3    29  A29        -0.4373
    575  OP2      129.0070   55.7250  160.5450 O.2    29  A29        -0.5172
    576  O5'      129.6470   53.4610  161.4820 O.3    29  A29        -0.3114
    577  C5'      129.7940   52.5270  162.5430 C.3    29  A29         0.1812
    578  C4'      129.6720   51.1030  162.0540 C.3    29  A29         0.1773
    579  O4'      128.3490   50.8940  161.5150 O.3    29  A29        -0.3307
    580  C3'      130.6210   50.7050  160.9300 C.3    29  A29         0.1860
    581  O3'      131.8790   50.2880  161.4210 O.3    29  A29        -0.3112
    582  C2'      129.8640   49.5930  160.2020 C.3    29  A29         0.2309
    583  O2'      130.1380   48.3180  160.7770 O.3    29  A29        -0.2156
    584  C1'      128.3990   49.9780  160.4460 C.3    29  A29         0.2408
    585   N9      127.7870   50.6270  159.2760 N.ar   29  A29        -0.2693
    586   C8      128.0490   51.8810  158.7770 C.ar   29  A29         0.1816
    587   N7      127.3400   52.1790  157.7130 N.ar   29  A29        -0.2193
    588   C5      126.5660   51.0430  157.5110 C.ar   29  A29         0.1518
    589   C6      125.6040   50.7180  156.5470 C.ar   29  A29         0.1919
    590   N6      125.2530   51.5560  155.5670 N.pl3  29  A29        -0.1054
    591   N.1     125.0140   49.4990  156.6290 N.ar   29  A29        -0.2040
    592   C.2     125.3610   48.6630  157.6180 C.ar   29  A29         0.2016
    593   N.3     126.2630   48.8540  158.5780 N.ar   29  A29        -0.2048
    594   C4      126.8290   50.0750  158.4660 C.ar   29  A29         0.1692
    595    P.3    133.2370   50.8640  160.7870 P.3    30  G30         0.2141
    596  OP1      134.0970   49.7010  160.4660 O.2    30  G30        -0.5172
    597  OP2      133.7640   51.9360  161.6670 O.3    30  G30        -0.4373
    598  O5'      132.7740   51.5170  159.4140 O.3    30  G30        -0.3114
    599  C5'      133.3510   51.0840  158.1900 C.3    30  G30         0.1812
    600  C4'      132.3100   50.9520  157.1110 C.3    30  G30         0.1773
    601  O4'      131.0960   51.6340  157.5230 O.3    30  G30        -0.3307
    602  C3'      132.6720   51.5870  155.7760 C.3    30  G30         0.1860
    603  O3'      133.4610   50.7290  154.9700 O.3    30  G30        -0.3112
    604  C2'      131.3110   51.9160  155.1760 C.3    30  G30         0.2309
    605  O2'      130.7090   50.7570  154.6140 O.3    30  G30        -0.2156
    606  C1'      130.5230   52.3120  156.4220 C.3    30  G30         0.2408
    607   N9      130.6240   53.7530  156.6960 N.ar   30  G30        -0.2693
    608   C8      131.2750   54.2920  157.7680 C.ar   30  G30         0.1817
    609   N7      131.2410   55.5870  157.8040 N.ar   30  G30        -0.2173
    610   C5      130.5170   55.9300  156.6700 C.ar   30  G30         0.1748
    611   C6      130.1440   57.2110  156.1770 C.ar   30  G30         0.3023
    612   O6      130.3930   58.3280  156.6570 O.2    30  G30        -0.2633
    613   N.1     129.4060   57.0930  154.9990 N.ar   30  G30        -0.1709
    614   C.2     129.0760   55.9070  154.3750 C.ar   30  G30         0.2606
    615   N.2     128.3620   56.0010  153.2420 N.pl3  30  G30        -0.0859
    616   N.3     129.4180   54.7120  154.8320 N.ar   30  G30        -0.1918
    617   C4      130.1300   54.8030  155.9720 C.ar   30  G30         0.1723
    618    P.3    134.6660   51.3100  154.0730 P.3    31  G31         0.2141
    619  OP1      135.4240   50.1370  153.5590 O.2    31  G31        -0.5172
    620  OP2      135.3430   52.3960  154.8390 O.3    31  G31        -0.4373
    621  O5'      133.9170   52.0070  152.8540 O.3    31  G31        -0.3114
    622  C5'      133.0290   51.2660  152.0280 C.3    31  G31         0.1812
    623  C4'      132.1740   52.1830  151.2000 C.3    31  G31         0.1773
    624  O4'      131.3330   52.9930  152.0600 O.3    31  G31        -0.3307
    625  C3'      132.9280   53.2050  150.3710 C.3    31  G31         0.1860
    626  O3'      133.4520   52.6460  149.1830 O.3    31  G31        -0.3112
    627  C2'      131.8790   54.2820  150.1420 C.3    31  G31         0.2309
    628  O2'      130.9760   53.8800  149.1250 O.3    31  G31        -0.2156
    629  C1'      131.1370   54.2650  151.4820 C.3    31  G31         0.2408
    630   N9      131.6410   55.2900  152.4130 N.ar   31  G31        -0.2693
    631   C8      132.3710   55.1070  153.5700 C.ar   31  G31         0.1817
    632   N7      132.6510   56.2330  154.1800 N.ar   31  G31        -0.2173
    633   C5      132.0730   57.2090  153.3730 C.ar   31  G31         0.1748
    634   C6      132.0460   58.6160  153.5100 C.ar   31  G31         0.3023
    635   O6      132.5500   59.2970  154.4090 O.2    31  G31        -0.2633
    636   N.1     131.3440   59.2200  152.4710 N.ar   31  G31        -0.1709
    637   C.2     130.7500   58.5560  151.4220 C.ar   31  G31         0.2606
    638   N.2     130.1160   59.3070  150.5050 N.pl3  31  G31        -0.0859
    639   N.3     130.7710   57.2460  151.2840 N.ar   31  G31        -0.1918
    640   C4      131.4420   56.6450  152.2870 C.ar   31  G31         0.1723
    641    P.3    134.6800   53.3540  148.4320 P.3    32  A32         0.2141
    642  OP1      135.1660   52.4460  147.3560 O.2    32  A32        -0.5172
    643  OP2      135.6110   53.8380  149.4860 O.3    32  A32        -0.4373
    644  O5'      134.0040   54.6160  147.7420 O.3    32  A32        -0.3114
    645  C5'      133.0270   54.4460  146.7250 C.3    32  A32         0.1812
    646  C4'      132.6760   55.7650  146.0930 C.3    32  A32         0.1773
    647  O4'      131.9170   56.5650  147.0330 O.3    32  A32        -0.3307
    648  C3'      133.8680   56.6370  145.7380 C.3    32  A32         0.1860
    649  O3'      134.4420   56.2920  144.4890 O.3    32  A32        -0.3112
    650  C2'      133.2920   58.0400  145.7930 C.3    32  A32         0.2309
    651  O2'      132.5500   58.3190  144.6200 O.3    32  A32        -0.2156
    652  C1'      132.3130   57.9130  146.9570 C.3    32  A32         0.2408
    653   N9      132.9400   58.2550  148.2390 N.ar   32  A32        -0.2693
    654   C8      133.4510   57.3820  149.1710 C.ar   32  A32         0.1816
    655   N7      133.9340   57.9780  150.2390 N.ar   32  A32        -0.2193
    656   C5      133.7240   59.3290  149.9820 C.ar   32  A32         0.1518
    657   C6      134.0190   60.4860  150.7140 C.ar   32  A32         0.1919
    658   N6      134.6050   60.4540  151.9080 N.pl3  32  A32        -0.1054
    659   N.1     133.6810   61.6800  150.1720 N.ar   32  A32        -0.2040
    660   C.2     133.0910   61.7010  148.9710 C.ar   32  A32         0.2016
    661   N.3     132.7630   60.6810  148.1840 N.ar   32  A32        -0.2048
    662   C4      133.1110   59.5150  148.7550 C.ar   32  A32         0.1692
    663    P.3    136.0380   56.2980  144.3120 P.3    33  U33         0.2141
    664  OP1      136.3900   55.6120  143.0360 O.2    33  U33        -0.5172
    665  OP2      136.6510   55.8350  145.5930 O.3    33  U33        -0.4373
    666  O5'      136.3510   57.8410  144.1120 O.3    33  U33        -0.3114
    667  C5'      135.6710   58.5790  143.1090 C.3    33  U33         0.1812
    668  C4'      135.8920   60.0560  143.2750 C.3    33  U33         0.1773
    669  O4'      135.1480   60.5400  144.4230 O.3    33  U33        -0.3307
    670  C3'      137.3180   60.4930  143.5630 C.3    33  U33         0.1860
    671  O3'      138.1340   60.5180  142.4050 O.3    33  U33        -0.3112
    672  C2'      137.1070   61.8580  144.1950 C.3    33  U33         0.2309
    673  O2'      136.7650   62.8030  143.1900 O.3    33  U33        -0.2156
    674  C1'      135.8600   61.5930  145.0450 C.3    33  U33         0.2420
    675   N.1     136.2040   61.1750  146.4270 N.ar   33  U33        -0.2534
    676   C.2     136.5190   62.1370  147.3740 C.ar   33  U33         0.3546
    677   O.2     136.5300   63.3300  147.1460 O.2    33  U33        -0.2443
    678   N.3     136.8160   61.6550  148.6160 N.ar   33  U33        -0.1530
    679   C4      136.8440   60.3280  148.9970 C.ar   33  U33         0.2846
    680   O4      137.1420   60.0240  150.1520 O.2    33  U33        -0.2650
    681   C5      136.5090   59.3950  147.9700 C.ar   33  U33         0.0814
    682   C6      136.2110   59.8400  146.7540 C.ar   33  U33         0.0870
    683    P.3    139.7240   60.3080  142.5230 P.3    34  G34         0.2141
    684  OP1      140.2530   60.4000  141.1380 O.2    34  G34        -0.5172
    685  OP2      139.9930   59.1190  143.3760 O.3    34  G34        -0.4373
    686  O5'      140.2360   61.6090  143.2900 O.3    34  G34        -0.3114
    687  C5'      140.3230   62.8640  142.6270 C.3    34  G34         0.1812
    688  C4'      140.7690   63.9560  143.5650 C.3    34  G34         0.1773
    689  O4'      139.7750   64.1300  144.6110 O.3    34  G34        -0.3307
    690  C3'      142.0580   63.7280  144.3530 C.3    34  G34         0.1860
    691  O3'      143.2600   63.9060  143.6260 O.3    34  G34        -0.3112
    692  C2'      141.8940   64.7110  145.4920 C.3    34  G34         0.2309
    693  O2'      142.0800   66.0390  145.0220 O.3    34  G34        -0.2156
    694  C1'      140.4170   64.5060  145.8180 C.3    34  G34         0.2408
    695   N9      140.3010   63.4130  146.7940 N.ar   34  G34        -0.2693
    696   C8      139.9890   62.0950  146.5760 C.ar   34  G34         0.1817
    697   N7      140.0330   61.3800  147.6680 N.ar   34  G34        -0.2173
    698   C5      140.4200   62.2820  148.6510 C.ar   34  G34         0.1748
    699   C6      140.6310   62.0950  150.0410 C.ar   34  G34         0.3023
    700   O6      140.5150   61.0450  150.6940 O.2    34  G34        -0.2633
    701   N.1     141.0100   63.2860  150.6730 N.ar   34  G34        -0.1709
    702   C.2     141.1600   64.5030  150.0430 C.ar   34  G34         0.2606
    703   N.2     141.5400   65.5240  150.8240 N.pl3  34  G34        -0.0859
    704   N.3     140.9620   64.6900  148.7460 N.ar   34  G34        -0.1918
    705   C4      140.5970   63.5440  148.1250 C.ar   34  G34         0.1723
    706    P.3    144.5970   63.1230  144.0860 P.3    35  G35         0.2141
    707  OP1      145.6580   63.5750  143.1500 O.2    35  G35        -0.5172
    708  OP2      144.3190   61.6680  144.2360 O.3    35  G35        -0.4373
    709  O5'      144.9490   63.7070  145.5330 O.3    35  G35        -0.3114
    710  C5'      145.6400   64.9440  145.6600 C.3    35  G35         0.1812
    711  C4'      145.8360   65.3770  147.0980 C.3    35  G35         0.1773
    712  O4'      144.6480   65.0870  147.8830 O.3    35  G35        -0.3307
    713  C3'      146.9570   64.7150  147.8900 C.3    35  G35         0.1860
    714  O3'      148.2500   65.2130  147.5810 O.3    35  G35        -0.3112
    715  C2'      146.5360   65.0020  149.3220 C.3    35  G35         0.2309
    716  O2'      146.8430   66.3430  149.6730 O.3    35  G35        -0.2156
    717  C1'      145.0180   64.8400  149.2250 C.3    35  G35         0.2408
    718   N9      144.6350   63.4670  149.5940 N.ar   35  G35        -0.2693
    719   C8      144.3230   62.4060  148.7790 C.ar   35  G35         0.1817
    720   N7      144.0690   61.3110  149.4380 N.ar   35  G35        -0.2173
    721   C5      144.2530   61.6760  150.7630 C.ar   35  G35         0.1748
    722   C6      144.1160   60.9050  151.9340 C.ar   35  G35         0.3023
    723   O6      143.7960   59.7070  152.0000 O.2    35  G35        -0.2633
    724   N.1     144.3950   61.6690  153.0720 N.ar   35  G35        -0.1709
    725   C.2     144.7450   63.0070  153.0800 C.ar   35  G35         0.2606
    726   N.2     144.9740   63.5780  154.2760 N.pl3  35  G35        -0.0859
    727   N.3     144.8670   63.7330  151.9840 N.ar   35  G35        -0.1918
    728   C4      144.6090   62.9990  150.8800 C.ar   35  G35         0.1723
    729    P.3    149.5340   64.2360  147.5820 P.3    36  G36         0.2141
    730  OP1      150.7450   65.0940  147.5070 O.3    36  G36        -0.4373
    731  OP2      149.3430   63.1650  146.5710 O.2    36  G36        -0.5172
    732  O5'      149.5210   63.5430  149.0200 O.3    36  G36        -0.3114
    733  C5'      149.7490   64.2930  150.2070 C.3    36  G36         0.1812
    734  C4'      149.5530   63.4420  151.4360 C.3    36  G36         0.1773
    735  O4'      148.2060   62.9010  151.4560 O.3    36  G36        -0.3307
    736  C3'      150.4450   62.2150  151.5290 C.3    36  G36         0.1860
    737  O3'      151.7420   62.5220  152.0180 O.3    36  G36        -0.3112
    738  C2'      149.6490   61.2790  152.4350 C.3    36  G36         0.2309
    739  O2'      149.8120   61.6430  153.8000 O.3    36  G36        -0.2156
    740  C1'      148.2110   61.6070  152.0310 C.3    36  G36         0.2408
    741   N9      147.6020   60.6510  151.0720 N.ar   36  G36        -0.2693
    742   C8      147.4440   60.8510  149.7230 C.ar   36  G36         0.1817
    743   N7      146.8200   59.8810  149.1180 N.ar   36  G36        -0.2173
    744   C5      146.5240   58.9860  150.1330 C.ar   36  G36         0.1748
    745   C6      145.8580   57.7330  150.0820 C.ar   36  G36         0.3023
    746   O6      145.3760   57.1520  149.1030 O.2    36  G36        -0.2633
    747   N.1     145.7660   57.1370  151.3330 N.ar   36  G36        -0.1709
    748   C.2     146.2550   57.6810  152.4890 C.ar   36  G36         0.2606
    749   N.2     146.0690   56.9550  153.6000 N.pl3  36  G36        -0.0859
    750   N.3     146.8840   58.8450  152.5440 N.ar   36  G36        -0.1918
    751   C4      146.9880   59.4460  151.3410 C.ar   36  G36         0.1723
    752    P.3    153.0560   61.9780  151.2600 P.3    37  G37         0.2141
    753  OP1      154.1810   62.9010  151.5770 O.3    37  G37        -0.4373
    754  OP2      152.6940   61.7120  149.8400 O.2    37  G37        -0.5172
    755  O5'      153.3290   60.5530  151.9220 O.3    37  G37        -0.3114
    756  C5'      153.2330   60.3680  153.3290 C.3    37  G37         0.1812
    757  C4'      152.9280   58.9330  153.6910 C.3    37  G37         0.1773
    758  O4'      151.5970   58.5790  153.2070 O.3    37  G37        -0.3307
    759  C3'      153.8930   57.8810  153.1230 C.3    37  G37         0.1860
    760  O3'      154.1400   56.8680  154.0990 O.3    37  G37        -0.3112
    761  C2'      153.0980   57.2800  151.9670 C.3    37  G37         0.2309
    762  O2'      153.4550   55.9570  151.6250 O.3    37  G37        -0.2156
    763  C1'      151.6690   57.3610  152.5030 C.3    37  G37         0.2408
    764   N9      150.6360   57.2860  151.4560 N.ar   37  G37        -0.2693
    765   C8      149.5640   56.4180  151.4560 C.ar   37  G37         0.1817
    766   N7      148.8230   56.4920  150.3800 N.ar   37  G37        -0.2173
    767   C5      149.4460   57.4570  149.6000 C.ar   37  G37         0.1748
    768   C6      149.0910   57.9650  148.3160 C.ar   37  G37         0.3023
    769   O6      148.1340   57.6720  147.5830 O.2    37  G37        -0.2633
    770   N.1     149.9910   58.9330  147.8920 N.ar   37  G37        -0.1709
    771   C.2     151.0910   59.3520  148.6000 C.ar   37  G37         0.2606
    772   N.2     151.8300   60.2960  147.9980 N.pl3  37  G37        -0.0859
    773   N.3     151.4400   58.8910  149.7950 N.ar   37  G37        -0.1918
    774   C4      150.5770   57.9480  150.2400 C.ar   37  G37         0.1723
    775    P.3    155.5620   56.1210  154.1700 P.3    38  C38         0.2141
    776  OP1      156.5530   57.0280  154.7930 O.3    38  C38        -0.4373
    777  OP2      155.8530   55.5080  152.8500 O.2    38  C38        -0.5172
    778  O5'      155.3000   54.9270  155.1820 O.3    38  C38        -0.3114
    779  C5'      155.0180   55.1910  156.5420 C.3    38  C38         0.1812
    780  C4'      154.0780   54.1600  157.1150 C.3    38  C38         0.1773
    781  O4'      152.7290   54.3910  156.6340 O.3    38  C38        -0.3307
    782  C3'      154.3570   52.7080  156.7550 C.3    38  C38         0.1860
    783  O3'      155.3970   52.1520  157.5410 O.3    38  C38        -0.3112
    784  C2'      153.0010   52.0510  157.0000 C.3    38  C38         0.2309
    785  O2'      152.8020   51.8230  158.3890 O.3    38  C38        -0.2156
    786  C1'      152.0350   53.1580  156.5670 C.3    38  C38         0.2420
    787   N.1     151.4910   52.9600  155.1990 N.ar   38  C38        -0.2535
    788   C.2     150.4680   52.0160  155.0430 C.ar   38  C38         0.3532
    789   O.2     150.0720   51.3640  156.0240 O.2    38  C38        -0.2443
    790   N.3     149.9350   51.8210  153.8160 N.ar   38  C38        -0.1739
    791   C4      150.3680   52.5140  152.7610 C.ar   38  C38         0.1759
    792   N.4     149.7970   52.2660  151.5740 N.pl3  38  C38        -0.1070
    793   C5      151.4010   53.4910  152.8880 C.ar   38  C38         0.0566
    794   C6      151.9200   53.6820  154.1140 C.ar   38  C38         0.0850
    795    P.3    156.4280   51.0620  156.9520 P.3    39  G39         0.2141
    796  OP1      157.2250   50.5320  158.0910 O.3    39  G39        -0.4373
    797  OP2      157.1120   51.6240  155.7610 O.2    39  G39        -0.5172
    798  O5'      155.5060   49.8480  156.5260 O.3    39  G39        -0.3114
    799  C5'      155.4100   49.4500  155.1710 C.3    39  G39         0.1812
    800  C4'      154.0450   48.8850  154.8900 C.3    39  G39         0.1773
    801  O4'      153.1550   49.9460  154.4590 O.3    39  G39        -0.3307
    802  C3'      153.9800   47.8600  153.7750 C.3    39  G39         0.1860
    803  O3'      154.3320   46.5710  154.2240 O.3    39  G39        -0.3112
    804  C2'      152.5380   47.9640  153.3170 C.3    39  G39         0.2309
    805  O2'      151.6890   47.2590  154.2100 O.3    39  G39        -0.2156
    806  C1'      152.2880   49.4680  153.4600 C.3    39  G39         0.2408
    807   N9      152.6150   50.1720  152.2130 N.ar   39  G39        -0.2693
    808   C8      153.6830   50.9950  151.9350 C.ar   39  G39         0.1817
    809   N7      153.6730   51.4440  150.7000 N.ar   39  G39        -0.2173
    810   C5      152.5320   50.8670  150.1390 C.ar   39  G39         0.1748
    811   C6      151.9700   50.9630  148.8400 C.ar   39  G39         0.3023
    812   O6      152.3900   51.6110  147.8640 O.2    39  G39        -0.2633
    813   N.1     150.8010   50.2030  148.7360 N.ar   39  G39        -0.1709
    814   C.2     150.2360   49.4460  149.7350 C.ar   39  G39         0.2606
    815   N.2     149.1100   48.7710  149.4540 N.pl3  39  G39        -0.0859
    816   N.3     150.7410   49.3560  150.9430 N.ar   39  G39        -0.1918
    817   C4      151.8750   50.0790  151.0630 C.ar   39  G39         0.1723
    818    P.3    155.1440   45.5790  153.2590 P.3    40  G40         0.2141
    819  OP1      155.3610   44.3500  154.0770 O.3    40  G40        -0.4373
    820  OP2      156.2950   46.2770  152.6130 O.2    40  G40        -0.5172
    821  O5'      154.0860   45.2320  152.1230 O.3    40  G40        -0.3114
    822  C5'      152.9230   44.4800  152.4330 C.3    40  G40         0.1812
    823  C4'      151.9960   44.3720  151.2490 C.3    40  G40         0.1773
    824  O4'      151.5760   45.6920  150.8160 O.3    40  G40        -0.3307
    825  C3'      152.5680   43.7300  149.9910 C.3    40  G40         0.1860
    826  O3'      152.5360   42.3130  150.0540 O.3    40  G40        -0.3112
    827  C2'      151.6500   44.2710  148.9080 C.3    40  G40         0.2309
    828  O2'      150.4560   43.5100  148.8870 O.3    40  G40        -0.2156
    829  C1'      151.3310   45.6850  149.4290 C.3    40  G40         0.2408
    830   N9      152.1890   46.6940  148.7820 N.ar   40  G40        -0.2693
    831   C8      153.3580   47.2400  149.2560 C.ar   40  G40         0.1817
    832   N7      153.9130   48.0780  148.4240 N.ar   40  G40        -0.2173
    833   C5      153.0700   48.0740  147.3240 C.ar   40  G40         0.1748
    834   C6      153.1580   48.7910  146.1020 C.ar   40  G40         0.3023
    835   O6      154.0280   49.5930  145.7420 O.2    40  G40        -0.2633
    836   N.1     152.0890   48.4950  145.2590 N.ar   40  G40        -0.1709
    837   C.2     151.0640   47.6200  145.5570 C.ar   40  G40         0.2606
    838   N.2     150.1230   47.4680  144.6020 N.pl3  40  G40        -0.0859
    839   N.3     150.9720   46.9430  146.7000 N.ar   40  G40        -0.1918
    840   C4      152.0050   47.2190  147.5260 C.ar   40  G40         0.1723
    841    P.3    153.8530   41.4100  149.8750 P.3    41  A41         0.2141
    842  OP1      153.7860   40.3470  150.9100 O.3    41  A41        -0.4373
    843  OP2      155.0660   42.2400  149.7170 O.2    41  A41        -0.5172
    844  O5'      153.6280   40.6660  148.4850 O.3    41  A41        -0.3114
    845  C5'      153.6150   41.4030  147.2670 C.3    41  A41         0.1812
    846  C4'      153.2250   40.5530  146.0810 C.3    41  A41         0.1773
    847  O4'      153.4440   41.3320  144.8800 O.3    41  A41        -0.3307
    848  C3'      154.0300   39.2680  145.8970 C.3    41  A41         0.1860
    849  O3'      153.2500   38.3410  145.1560 O.3    41  A41        -0.3112
    850  C2'      155.1590   39.7230  144.9900 C.3    41  A41         0.2309
    851  O2'      155.7250   38.6740  144.2410 O.3    41  A41        -0.2156
    852  C1'      154.4360   40.7130  144.0820 C.3    41  A41         0.2408
    853   N9      155.3010   41.7650  143.5400 N.ar   41  A41        -0.2693
    854   C8      156.5130   42.2060  144.0150 C.ar   41  A41         0.1816
    855   N7      157.0400   43.1670  143.2900 N.ar   41  A41        -0.2193
    856   C5      156.1070   43.3750  142.2730 C.ar   41  A41         0.1518
    857   C6      156.0470   44.2600  141.1760 C.ar   41  A41         0.1919
    858   N6      156.9810   45.1650  140.8670 N.pl3  41  A41        -0.1054
    859   N.1     154.9690   44.1800  140.3700 N.ar   41  A41        -0.2040
    860   C.2     154.0120   43.2920  140.6450 C.ar   41  A41         0.2016
    861   N.3     153.9480   42.4270  141.6480 N.ar   41  A41        -0.2048
    862   C4      155.0330   42.5180  142.4270 C.ar   41  A41         0.1692
    863    P.3    152.6370   37.0040  145.7950 P.3    42  A42         0.2141
    864  OP1      152.2590   37.1780  147.2060 O.3    42  A42        -0.4373
    865  OP2      153.5830   35.9120  145.4260 O.2    42  A42        -0.5172
    866  O5'      151.3520   36.7840  144.8760 O.3    42  A42        -0.3114
    867  C5'      150.0470   37.2240  145.2380 C.3    42  A42         0.1812
    868  C4'      149.8290   38.7140  145.0900 C.3    42  A42         0.1773
    869  O4'      149.6510   39.1010  143.6830 O.3    42  A42        -0.3307
    870  C3'      148.5760   39.2090  145.8180 C.3    42  A42         0.1860
    871  O3'      148.8210   40.4730  146.4110 O.3    42  A42        -0.3112
    872  C2'      147.5720   39.3700  144.6840 C.3    42  A42         0.2309
    873  O2'      146.5030   40.2440  144.9460 O.3    42  A42        -0.2156
    874  C1'      148.4670   39.8760  143.5700 C.3    42  A42         0.2408
    875   N9      147.8380   39.7420  142.2500 N.ar   42  A42        -0.2693
    876   C8      147.3820   38.5940  141.6440 C.ar   42  A42         0.1816
    877   N7      146.8020   38.7830  140.4840 N.ar   42  A42        -0.2193
    878   C5      146.8480   40.1560  140.3150 C.ar   42  A42         0.1518
    879   C6      146.3950   40.9940  139.2740 C.ar   42  A42         0.1919
    880   N6      145.7780   40.5500  138.1690 N.pl3  42  A42        -0.1054
    881   N.1     146.6030   42.3200  139.4080 N.ar   42  A42        -0.2040
    882   C.2     147.2110   42.7610  140.5140 C.ar   42  A42         0.2016
    883   N.3     147.6830   42.0750  141.5490 N.ar   42  A42        -0.2048
    884   C4      147.4780   40.7590  141.3940 C.ar   42  A42         0.1692
    885    P.3    148.4760   40.6740  147.9580 P.3    43  A43         0.2141
    886  OP1      149.7710   40.9000  148.6620 O.3    43  A43        -0.4373
    887  OP2      147.5550   39.5820  148.3670 O.2    43  A43        -0.5172
    888  O5'      147.6400   42.0180  147.9980 O.3    43  A43        -0.3114
    889  C5'      146.3230   42.0840  147.4820 C.3    43  A43         0.1812
    890  C4'      145.8540   43.5070  147.4730 C.3    43  A43         0.1773
    891  O4'      145.7620   43.9650  148.8460 O.3    43  A43        -0.3307
    892  C3'      146.7950   44.4700  146.7730 C.3    43  A43         0.1860
    893  O3'      146.0320   45.5550  146.2570 O.3    43  A43        -0.3112
    894  C2'      147.7030   44.9360  147.9120 C.3    43  A43         0.2309
    895  O2'      148.3300   46.1870  147.7230 O.3    43  A43        -0.2156
    896  C1'      146.7500   44.9450  149.1070 C.3    43  A43         0.2408
    897   N9      147.4060   44.5340  150.3480 N.ar   43  A43        -0.2693
    898   C8      147.4130   43.2570  150.8500 C.ar   43  A43         0.1816
    899   N7      148.0650   43.1360  151.9780 N.ar   43  A43        -0.2193
    900   C5      148.5170   44.4250  152.2320 C.ar   43  A43         0.1518
    901   C6      149.2740   44.9520  153.2910 C.ar   43  A43         0.1919
    902   N6      149.7210   44.2120  154.3080 N.pl3  43  A43        -0.1054
    903   N.1     149.5530   46.2770  153.2560 N.ar   43  A43        -0.2040
    904   C.2     149.0980   47.0000  152.2130 C.ar   43  A43         0.2016
    905   N.3     148.3670   46.6310  151.1630 N.ar   43  A43        -0.2048
    906   C4      148.1100   45.3090  151.2400 C.ar   43  A43         0.1692
    907    P.3    146.2670   46.0430  144.7490 P.3    44  G44         0.2141
    908  OP1      147.7140   45.8560  144.4460 O.2    44  G44        -0.5172
    909  OP2      145.5970   47.3590  144.5950 O.3    44  G44        -0.4373
    910  O5'      145.4250   45.0190  143.8710 O.3    44  G44        -0.3114
    911  C5'      144.0140   45.1130  143.8130 C.3    44  G44         0.1812
    912  C4'      143.5030   44.8100  142.4300 C.3    44  G44         0.1773
    913  O4'      144.3680   43.8370  141.8020 O.3    44  G44        -0.3307
    914  C3'      142.1190   44.1830  142.3800 C.3    44  G44         0.1860
    915  O3'      141.0960   45.1620  142.4140 O.3    44  G44        -0.3112
    916  C2'      142.1520   43.3670  141.0870 C.3    44  G44         0.2309
    917  O2'      141.9020   44.1920  139.9640 O.3    44  G44        -0.2156
    918  C1'      143.6110   42.9370  141.0270 C.3    44  G44         0.2408
    919   N9      143.8520   41.5770  141.5380 N.ar   44  G44        -0.2693
    920   C8      144.7130   41.3030  142.5670 C.ar   44  G44         0.1817
    921   N7      144.8230   40.0380  142.8320 N.ar   44  G44        -0.2173
    922   C5      143.9730   39.4380  141.9170 C.ar   44  G44         0.1748
    923   C6      143.6830   38.0670  141.7400 C.ar   44  G44         0.3023
    924   O6      144.1350   37.1130  142.3810 O.2    44  G44        -0.2633
    925   N.1     142.7790   37.8630  140.7010 N.ar   44  G44        -0.1709
    926   C.2     142.2210   38.8520  139.9370 C.ar   44  G44         0.2606
    927   N.2     141.3670   38.4210  139.0030 N.pl3  44  G44        -0.0859
    928   N.3     142.4790   40.1430  140.0920 N.ar   44  G44        -0.1918
    929   C4      143.3670   40.3660  141.0930 C.ar   44  G44         0.1723
    930    P.3    139.7310   44.9240  143.2320 P.3    45  C45         0.2141
    931  OP1      138.9660   46.1950  143.1690 O.2    45  C45        -0.5172
    932  OP2      139.9880   44.2700  144.5340 O.3    45  C45        -0.4373
    933  O5'      138.9550   43.8450  142.3670 O.3    45  C45        -0.3114
    934  C5'      138.5990   44.1030  141.0200 C.3    45  C45         0.1812
    935  C4'      138.0480   42.8580  140.3850 C.3    45  C45         0.1773
    936  O4'      139.1190   41.9040  140.2030 O.3    45  C45        -0.3307
    937  C3'      137.0360   42.1110  141.2330 C.3    45  C45         0.1860
    938  O3'      135.7360   42.6670  141.1650 O.3    45  C45        -0.3112
    939  C2'      137.1460   40.6820  140.7180 C.3    45  C45         0.2309
    940  O2'      136.4270   40.5320  139.5020 O.3    45  C45        -0.2156
    941  C1'      138.6380   40.5900  140.4090 C.3    45  C45         0.2420
    942   N.1     139.4240   39.9620  141.4960 N.ar   45  C45        -0.2535
    943   C.2     139.4290   38.5690  141.6250 C.ar   45  C45         0.3532
    944   O.2     138.7540   37.8650  140.8570 O.2    45  C45        -0.2443
    945   N.3     140.1630   38.0140  142.6130 N.ar   45  C45        -0.1739
    946   C4      140.8860   38.7680  143.4380 C.ar   45  C45         0.1759
    947   N.4     141.5960   38.1400  144.3790 N.pl3  45  C45        -0.1070
    948   C5      140.9110   40.1880  143.3310 C.ar   45  C45         0.0566
    949   C6      140.1730   40.7290  142.3530 C.ar   45  C45         0.0850
    950    P.3    134.8280   42.7040  142.4830 P.3    46  C46         0.2141
    951  OP1      133.6540   43.5750  142.2220 O.2    46  C46        -0.5172
    952  OP2      135.7000   43.0280  143.6340 O.3    46  C46        -0.4373
    953  O5'      134.3450   41.1950  142.6370 O.3    46  C46        -0.3114
    954  C5'      133.7280   40.5300  141.5490 C.3    46  C46         0.1812
    955  C4'      133.6190   39.0460  141.7900 C.3    46  C46         0.1773
    956  O4'      134.9220   38.4170  141.7440 O.3    46  C46        -0.3307
    957  C3'      133.0760   38.6220  143.1380 C.3    46  C46         0.1860
    958  O3'      131.6780   38.7570  143.2310 O.3    46  C46        -0.3112
    959  C2'      133.5460   37.1790  143.2330 C.3    46  C46         0.2309
    960  O2'      132.7120   36.3410  142.4490 O.3    46  C46        -0.2156
    961  C1'      134.9150   37.2640  142.5610 C.3    46  C46         0.2420
    962   N.1     136.0160   37.3420  143.5470 N.ar   46  C46        -0.2535
    963   C.2     136.4290   36.1410  144.1400 C.ar   46  C46         0.3532
    964   O.2     135.8670   35.0770  143.8300 O.2    46  C46        -0.2443
    965   N.3     137.4300   36.1570  145.0430 N.ar   46  C46        -0.1739
    966   C4      138.0120   37.3120  145.3520 C.ar   46  C46         0.1759
    967   N.4     139.0050   37.2710  146.2430 N.pl3  46  C46        -0.1070
    968   C5      137.6170   38.5500  144.7680 C.ar   46  C46         0.0566
    969   C6      136.6230   38.5200  143.8720 C.ar   46  C46         0.0850
    970    P.3    131.0220   39.0730  144.6510 P.3    47  U47         0.2141
    971  OP1      129.5570   39.1900  144.4320 O.2    47  U47        -0.5172
    972  OP2      131.7980   40.1890  145.2560 O.3    47  U47        -0.4373
    973  O5'      131.3300   37.7610  145.5030 O.3    47  U47        -0.3114
    974  C5'      130.6920   36.5310  145.1920 C.3    47  U47         0.1812
    975  C4'      131.2320   35.3930  146.0260 C.3    47  U47         0.1773
    976  O4'      132.6660   35.2760  145.8630 O.3    47  U47        -0.3307
    977  C3'      131.0390   35.5140  147.5250 C.3    47  U47         0.1860
    978  O3'      129.7460   35.1190  147.9210 O.3    47  U47        -0.3112
    979  C2'      132.1160   34.5990  148.0820 C.3    47  U47         0.2309
    980  O2'      131.6520   33.2580  148.0660 O.3    47  U47        -0.2156
    981  C1'      133.2400   34.7670  147.0500 C.3    47  U47         0.2420
    982   N.1     134.2910   35.7070  147.5020 N.ar   47  U47        -0.2534
    983   C.2     135.3000   35.2340  148.3290 C.ar   47  U47         0.3546
    984   O.2     135.3840   34.0690  148.7080 O.2    47  U47        -0.2443
    985   N.3     136.2280   36.1820  148.6990 N.ar   47  U47        -0.1530
    986   C4      136.2500   37.5120  148.3350 C.ar   47  U47         0.2846
    987   O4      137.1590   38.2380  148.7310 O.2    47  U47        -0.2650
    988   C5      135.1840   37.9150  147.4810 C.ar   47  U47         0.0814
    989   C6      134.2650   37.0220  147.1070 C.ar   47  U47         0.0870
    990    P.3    128.7870   36.1630  148.6520 P.3    48  A48         0.2141
    991  OP1      127.4640   35.5110  148.8400 O.3    48  A48        -0.4373
    992  OP2      128.8980   37.4490  147.9230 O.2    48  A48        -0.5172
    993  O5'      129.4820   36.3760  150.0660 O.3    48  A48        -0.3114
    994  C5'      129.5620   35.3150  151.0080 C.3    48  A48         0.1812
    995  C4'      129.3320   35.7920  152.4210 C.3    48  A48         0.1773
    996  O4'      130.3360   36.7920  152.7520 O.3    48  A48        -0.3307
    997  C3'      127.9700   36.4350  152.6880 C.3    48  A48         0.1860
    998  O3'      127.4640   36.0320  153.9630 O.3    48  A48        -0.3112
    999  C2'      128.2780   37.9310  152.7060 C.3    48  A48         0.2309
   1000  O2'      127.4120   38.6780  153.5310 O.3    48  A48        -0.2156
   1001  C1'      129.7080   37.9610  153.2370 C.3    48  A48         0.2408
   1002   N9      130.4900   39.1210  152.7900 N.ar   48  A48        -0.2693
   1003   C8      130.1210   40.0640  151.8670 C.ar   48  A48         0.1816
   1004   N7      131.0260   40.9940  151.6790 N.ar   48  A48        -0.2193
   1005   C5      132.0560   40.6540  152.5460 C.ar   48  A48         0.1518
   1006   C6      133.3070   41.2490  152.8270 C.ar   48  A48         0.1919
   1007   N6      133.7650   42.3570  152.2370 N.pl3  48  A48        -0.1054
   1008   N.1     134.1040   40.6450  153.7410 N.ar   48  A48        -0.2040
   1009   C.2     133.6600   39.5220  154.3330 C.ar   48  A48         0.2016
   1010   N.3     132.5030   38.8780  154.1570 N.ar   48  A48        -0.2048
   1011   C4      131.7390   39.4960  153.2350 C.ar   48  A48         0.1692
   1012    P.3    125.9440   35.5140  154.0890 P.3    49  A49         0.2141
   1013  OP1      125.0620   36.3140  153.2000 O.2    49  A49        -0.5172
   1014  OP2      125.6180   35.4420  155.5390 O.3    49  A49        -0.4373
   1015  O5'      125.9880   34.0480  153.4690 O.3    49  A49        -0.3114
   1016  C5'      127.0580   33.1560  153.7600 C.3    49  A49         0.1812
   1017  C4'      127.0440   31.9590  152.8450 C.3    49  A49         0.1773
   1018  O4'      125.7000   31.3940  152.7990 O.3    49  A49        -0.3307
   1019  C3'      127.4370   32.2310  151.3920 C.3    49  A49         0.1860
   1020  O3'      128.0820   31.0660  150.8740 O.3    49  A49        -0.3112
   1021  C2'      126.0780   32.3770  150.7150 C.3    49  A49         0.2309
   1022  O2'      126.0970   32.1540  149.3210 O.3    49  A49        -0.2156
   1023  C1'      125.2740   31.3120  151.4570 C.3    49  A49         0.2408
   1024   N9      123.8140   31.4640  151.4140 N.ar   49  A49        -0.2693
   1025   C8      123.0620   32.4650  150.8440 C.ar   49  A49         0.1816
   1026   N7      121.7650   32.2930  150.9640 N.ar   49  A49        -0.2193
   1027   C5      121.6460   31.0900  151.6560 C.ar   49  A49         0.1518
   1028   C6      120.5290   30.3460  152.1020 C.ar   49  A49         0.1919
   1029   N6      119.2550   30.7170  151.9130 N.pl3  49  A49        -0.1054
   1030   N.1     120.7690   29.1870  152.7610 N.ar   49  A49        -0.2040
   1031   C.2     122.0410   28.8110  152.9500 C.ar   49  A49         0.2016
   1032   N.3     123.1670   29.4210  152.5840 N.ar   49  A49        -0.2048
   1033   C4      122.9010   30.5680  151.9320 C.ar   49  A49         0.1692
   1034    P.3    129.5850   31.1130  150.3160 P.3    50  G50         0.2141
   1035  OP1      130.0770   32.5080  150.2510 O.3    50  G50        -0.4373
   1036  OP2      129.6100   30.2560  149.0990 O.2    50  G50        -0.5172
   1037  O5'      130.4570   30.4400  151.4650 O.3    50  G50        -0.3114
   1038  C5'      130.0910   29.1990  152.0440 C.3    50  G50         0.1812
   1039  C4'      131.1330   28.7430  153.0330 C.3    50  G50         0.1773
   1040  O4'      132.4620   28.9060  152.4580 O.3    50  G50        -0.3307
   1041  C3'      131.2150   29.5300  154.3330 C.3    50  G50         0.1860
   1042  O3'      130.2120   29.1970  155.2790 O.3    50  G50        -0.3112
   1043  C2'      132.6230   29.2150  154.7990 C.3    50  G50         0.2309
   1044  O2'      132.6770   27.8820  155.2800 O.3    50  G50        -0.2156
   1045  C1'      133.3780   29.2840  153.4750 C.3    50  G50         0.2408
   1046   N9      133.8140   30.6720  153.2340 N.ar   50  G50        -0.2693
   1047   C8      133.1860   31.5900  152.4300 C.ar   50  G50         0.1817
   1048   N7      133.7570   32.7620  152.4320 N.ar   50  G50        -0.2173
   1049   C5      134.8040   32.6160  153.3210 C.ar   50  G50         0.1748
   1050   C6      135.7720   33.5650  153.7270 C.ar   50  G50         0.3023
   1051   O6      135.8870   34.7410  153.3690 O.2    50  G50        -0.2633
   1052   N.1     136.6770   33.0160  154.6280 N.ar   50  G50        -0.1709
   1053   C.2     136.6430   31.7240  155.0950 C.ar   50  G50         0.2606
   1054   N.2     137.6130   31.4150  155.9770 N.pl3  50  G50        -0.0859
   1055   N.3     135.7310   30.8260  154.7260 N.ar   50  G50        -0.1918
   1056   C4      134.8520   31.3360  153.8370 C.ar   50  G50         0.1723
   1057    P.3    129.7120   30.3110  156.3230 P.3    51  G51         0.2141
   1058  OP1      128.6040   29.7410  157.1360 O.3    51  G51        -0.4373
   1059  OP2      129.5340   31.5820  155.5770 O.2    51  G51        -0.5172
   1060  O5'      130.9560   30.5250  157.2860 O.3    51  G51        -0.3114
   1061  C5'      131.4630   29.4400  158.0410 C.3    51  G51         0.1812
   1062  C4'      132.7660   29.7840  158.7110 C.3    51  G51         0.1773
   1063  O4'      133.7710   30.1720  157.7300 O.3    51  G51        -0.3307
   1064  C3'      132.7420   30.9590  159.6620 C.3    51  G51         0.1860
   1065  O3'      132.1100   30.6830  160.8990 O.3    51  G51        -0.3112
   1066  C2'      134.2230   31.3010  159.7630 C.3    51  G51         0.2309
   1067  O2'      134.9130   30.3410  160.5500 O.3    51  G51        -0.2156
   1068  C1'      134.6480   31.1310  158.3070 C.3    51  G51         0.2408
   1069   N9      134.4840   32.4130  157.5970 N.ar   51  G51        -0.2693
   1070   C8      133.4620   32.7530  156.7380 C.ar   51  G51         0.1817
   1071   N7      133.5510   33.9720  156.2830 N.ar   51  G51        -0.2173
   1072   C5      134.6910   34.4690  156.8960 C.ar   51  G51         0.1748
   1073   C6      135.2740   35.7460  156.7870 C.ar   51  G51         0.3023
   1074   O6      134.8860   36.6990  156.1030 O.2    51  G51        -0.2633
   1075   N.1     136.4090   35.8430  157.5740 N.ar   51  G51        -0.1709
   1076   C.2     136.9250   34.8500  158.3650 C.ar   51  G51         0.2606
   1077   N.2     138.0440   35.1780  159.0310 N.pl3  51  G51        -0.0859
   1078   N.3     136.3860   33.6430  158.4840 N.ar   51  G51        -0.1918
   1079   C4      135.2780   33.5300  157.7230 C.ar   51  G51         0.1723
   1080    P.3    131.0760   31.7530  161.5180 P.3    52  G52         0.2141
   1081  OP1      130.6150   31.2440  162.8400 O.3    52  G52        -0.4373
   1082  OP2      130.0360   32.0350  160.4870 O.2    52  G52        -0.5172
   1083  O5'      131.9830   33.0620  161.7340 O.3    52  G52        -0.3114
   1084  C5'      133.2000   32.9940  162.4700 C.3    52  G52         0.1812
   1085  C4'      134.0660   34.2200  162.2970 C.3    52  G52         0.1773
   1086  O4'      134.3320   34.4950  160.8950 O.3    52  G52        -0.3307
   1087  C3'      133.4970   35.5230  162.8220 C.3    52  G52         0.1860
   1088  O3'      133.6020   35.6200  164.2330 O.3    52  G52        -0.3112
   1089  C2'      134.3190   36.5630  162.0730 C.3    52  G52         0.2309
   1090  O2'      135.6010   36.6950  162.6570 O.3    52  G52        -0.2156
   1091  C1'      134.4810   35.8920  160.7040 C.3    52  G52         0.2408
   1092   N9      133.4480   36.3580  159.7570 N.ar   52  G52        -0.2693
   1093   C8      132.3460   35.6510  159.3470 C.ar   52  G52         0.1817
   1094   N7      131.5900   36.3150  158.5190 N.ar   52  G52        -0.2173
   1095   C5      132.2270   37.5440  158.3730 C.ar   52  G52         0.1748
   1096   C6      131.8640   38.6820  157.5910 C.ar   52  G52         0.3023
   1097   O6      130.8720   38.8380  156.8480 O.2    52  G52        -0.2633
   1098   N.1     132.7940   39.7100  157.7400 N.ar   52  G52        -0.1709
   1099   C.2     133.9150   39.6640  158.5260 C.ar   52  G52         0.2606
   1100   N.2     134.6720   40.7750  158.5150 N.pl3  52  G52        -0.0859
   1101   N.3     134.2600   38.6100  159.2570 N.ar   52  G52        -0.1918
   1102   C4      133.3760   37.5910  159.1360 C.ar   52  G52         0.1723
   1103    P.3    132.3950   36.2210  165.1150 P.3    53  U53         0.2141
   1104  OP1      132.6930   35.8450  166.5210 O.3    53  U53        -0.4373
   1105  OP2      131.0770   35.8580  164.5210 O.2    53  U53        -0.5172
   1106  O5'      132.6040   37.7970  164.9930 O.3    53  U53        -0.3114
   1107  C5'      133.8510   38.3580  165.3610 C.3    53  U53         0.1812
   1108  C4'      134.1250   39.6630  164.6670 C.3    53  U53         0.1773
   1109  O4'      134.1230   39.5000  163.2270 O.3    53  U53        -0.3307
   1110  C3'      133.1180   40.7680  164.8900 C.3    53  U53         0.1860
   1111  O3'      133.2230   41.3650  166.1610 O.3    53  U53        -0.3112
   1112  C2'      133.4260   41.7150  163.7430 C.3    53  U53         0.2309
   1113  O2'      134.6050   42.4650  164.0030 O.3    53  U53        -0.2156
   1114  C1'      133.7270   40.7200  162.6210 C.3    53  U53         0.2420
   1115   N.1     132.5350   40.5010  161.7740 N.ar   53  U53        -0.2534
   1116   C.2     132.2270   41.5280  160.8950 C.ar   53  U53         0.3546
   1117   O.2     132.8900   42.5510  160.7870 O.2    53  U53        -0.2443
   1118   N.3     131.1160   41.3060  160.1320 N.ar   53  U53        -0.1530
   1119   C4      130.3040   40.1900  160.1670 C.ar   53  U53         0.2846
   1120   O4      129.3330   40.1250  159.4200 O.2    53  U53        -0.2650
   1121   C5      130.6800   39.1830  161.1070 C.ar   53  U53         0.0814
   1122   C6      131.7590   39.3710  161.8700 C.ar   53  U53         0.0870
   1123    P.3    131.8940   41.8410  166.9200 P.3    54  C54         0.2141
   1124  OP1      132.3160   42.3030  168.2740 O.3    54  C54        -0.4373
   1125  OP2      130.8860   40.7500  166.7970 O.2    54  C54        -0.5172
   1126  O5'      131.3620   43.0710  166.0490 O.3    54  C54        -0.3114
   1127  C5'      132.1160   44.2670  165.9210 C.3    54  C54         0.1812
   1128  C4'      131.5330   45.1890  164.8740 C.3    54  C54         0.1773
   1129  O4'      131.5920   44.5710  163.5550 O.3    54  C54        -0.3307
   1130  C3'      130.0660   45.5700  165.0150 C.3    54  C54         0.1860
   1131  O3'      129.8080   46.5280  166.0270 O.3    54  C54        -0.3112
   1132  C2'      129.7440   46.0620  163.6100 C.3    54  C54         0.2309
   1133  O2'      130.3180   47.3420  163.3870 O.3    54  C54        -0.2156
   1134  C1'      130.5090   45.0380  162.7660 C.3    54  C54         0.2420
   1135   N.1     129.6200   43.9050  162.4080 N.ar   54  C54        -0.2535
   1136   C.2     128.6470   44.1320  161.4260 C.ar   54  C54         0.3532
   1137   O.2     128.5900   45.2350  160.8650 O.2    54  C54        -0.2443
   1138   N.3     127.7890   43.1430  161.0950 N.ar   54  C54        -0.1739
   1139   C4      127.8720   41.9580  161.7050 C.ar   54  C54         0.1759
   1140   N.4     127.0020   41.0160  161.3290 N.pl3  54  C54        -0.1070
   1141   C5      128.8390   41.6930  162.7190 C.ar   54  C54         0.0566
   1142   C6      129.6770   42.6900  163.0410 C.ar   54  C54         0.0850
   1143    P.3    128.3600   46.6220  166.7370 P.3    55  U55         0.2141
   1144  OP1      128.5320   47.5280  167.8980 O.3    55  U55        -0.4373
   1145  OP2      127.8040   45.2550  166.9240 O.2    55  U55        -0.5172
   1146  O5'      127.4380   47.3710  165.6770 O.3    55  U55        -0.3114
   1147  C5'      127.8550   48.5940  165.0920 C.3    55  U55         0.1812
   1148  C4'      126.8890   49.0660  164.0330 C.3    55  U55         0.1773
   1149  O4'      126.9030   48.1850  162.8820 O.3    55  U55        -0.3307
   1150  C3'      125.4290   49.1080  164.4290 C.3    55  U55         0.1860
   1151  O3'      125.1200   50.2190  165.2440 O.3    55  U55        -0.3112
   1152  C2'      124.7240   49.1160  163.0760 C.3    55  U55         0.2309
   1153  O2'      124.7460   50.4110  162.4950 O.3    55  U55        -0.2156
   1154  C1'      125.6340   48.2050  162.2540 C.3    55  U55         0.2420
   1155   N.1     125.1100   46.8270  162.1810 N.ar   55  U55        -0.2534
   1156   C.2     124.0530   46.5990  161.3260 C.ar   55  U55         0.3546
   1157   O.2     123.5440   47.4720  160.6420 O.2    55  U55        -0.2443
   1158   N.3     123.6110   45.3010  161.2980 N.ar   55  U55        -0.1530
   1159   C4      124.1160   44.2420  162.0290 C.ar   55  U55         0.2846
   1160   O4      123.6170   43.1240  161.8980 O.2    55  U55        -0.2650
   1161   C5      125.2050   44.5630  162.8960 C.ar   55  U55         0.0814
   1162   C6      125.6510   45.8190  162.9400 C.ar   55  U55         0.0870
   1163    P.3    124.0330   50.0720  166.4150 P.3    56  C56         0.2141
   1164  OP1      124.1300   51.3000  167.2430 O.3    56  C56        -0.4373
   1165  OP2      124.2130   48.7290  167.0400 O.2    56  C56        -0.5172
   1166  O5'      122.6550   50.1470  165.6260 O.3    56  C56        -0.3114
   1167  C5'      122.4320   51.2210  164.7280 C.3    56  C56         0.1812
   1168  C4'      121.3320   50.9240  163.7430 C.3    56  C56         0.1773
   1169  O4'      121.6620   49.7690  162.9370 O.3    56  C56        -0.3307
   1170  C3'      119.9800   50.5920  164.3410 C.3    56  C56         0.1860
   1171  O3'      119.2960   51.7710  164.7360 O.3    56  C56        -0.3112
   1172  C2'      119.2910   49.8240  163.2100 C.3    56  C56         0.2309
   1173  O2'      118.7160   50.7270  162.2780 O.3    56  C56        -0.2156
   1174  C1'      120.4750   49.1200  162.5310 C.3    56  C56         0.2420
   1175   N.1     120.5800   47.6700  162.8420 N.ar   56  C56        -0.2535
   1176   C.2     119.7700   46.7580  162.1400 C.ar   56  C56         0.3532
   1177   O.2     118.9600   47.1740  161.2900 O.2    56  C56        -0.2443
   1178   N.3     119.8930   45.4360  162.4160 N.ar   56  C56        -0.1739
   1179   C4      120.7730   45.0080  163.3320 C.ar   56  C56         0.1759
   1180   N.4     120.8560   43.6990  163.5730 N.pl3  56  C56        -0.1070
   1181   C5      121.6140   45.9080  164.0530 C.ar   56  C56         0.0566
   1182   C6      121.4870   47.2140  163.7710 C.ar   56  C56         0.0850
   1183    P.3    118.1580   51.7460  165.8730 P.3    57  C57         0.2141
   1184  OP1      117.8820   53.1610  166.2260 O.2    57  C57        -0.5172
   1185  OP2      118.5190   50.7640  166.9280 O.3    57  C57        -0.4373
   1186  O5'      116.8870   51.2110  165.0880 O.3    57  C57        -0.3114
   1187  C5'      115.7250   50.7790  165.7690 C.3    57  C57         0.1812
   1188  C4'      114.6350   50.4260  164.7920 C.3    57  C57         0.1773
   1189  O4'      114.4310   51.5280  163.8660 O.3    57  C57        -0.3307
   1190  C3'      114.8950   49.1850  163.9370 C.3    57  C57         0.1860
   1191  O3'      113.6780   48.4570  163.7980 O.3    57  C57        -0.3112
   1192  C2'      115.3030   49.7680  162.5830 C.3    57  C57         0.2309
   1193  O2'      115.0200   48.9290  161.4820 O.3    57  C57        -0.2156
   1194  C1'      114.4770   51.0490  162.5350 C.3    57  C57         0.2420
   1195   N.1     115.0060   52.1050  161.6420 N.ar   57  C57        -0.2535
   1196   C.2     115.9180   53.1000  162.0630 C.ar   57  C57         0.3532
   1197   O.2     116.3580   53.1370  163.2250 O.2    57  C57        -0.2443
   1198   N.3     116.3320   54.0320  161.1670 N.ar   57  C57        -0.1739
   1199   C4      115.8910   54.0280  159.9070 C.ar   57  C57         0.1759
   1200   N.4     116.3380   54.9780  159.0790 N.pl3  57  C57        -0.1070
   1201   C5      114.9660   53.0450  159.4510 C.ar   57  C57         0.0566
   1202   C6      114.5600   52.1260  160.3410 C.ar   57  C57         0.0850
   1203    P.3    113.1330   47.5630  165.0200 P.3    58  C58         0.2141
   1204  OP1      111.6580   47.7600  165.0750 O.2    58  C58        -0.5172
   1205  OP2      113.9720   47.7890  166.2320 O.3    58  C58        -0.4373
   1206  O5'      113.4370   46.0740  164.5450 O.3    58  C58        -0.3114
   1207  C5'      114.2150   45.8190  163.3800 C.3    58  C58         0.1812
   1208  C4'      114.8360   44.4530  163.4390 C.3    58  C58         0.1773
   1209  O4'      116.2420   44.5830  163.7870 O.3    58  C58        -0.3307
   1210  C3'      114.2140   43.5100  164.4740 C.3    58  C58         0.1860
   1211  O3'      114.0560   42.2030  163.9230 O.3    58  C58        -0.3112
   1212  C2'      115.2460   43.4940  165.6080 C.3    58  C58         0.2309
   1213  O2'      115.2810   42.2960  166.3520 O.3    58  C58        -0.2156
   1214  C1'      116.5500   43.7090  164.8500 C.3    58  C58         0.2420
   1215   N.1     117.6450   44.2820  165.6580 N.ar   58  C58        -0.2535
   1216   C.2     118.5000   43.3680  166.2850 C.ar   58  C58         0.3532
   1217   O.2     118.2590   42.1610  166.1220 O.2    58  C58        -0.2443
   1218   N.3     119.5450   43.8070  167.0430 N.ar   58  C58        -0.1739
   1219   C4      119.7590   45.1170  167.1900 C.ar   58  C58         0.1759
   1220   N.4     120.7950   45.4990  167.9460 N.pl3  58  C58        -0.1070
   1221   C5      118.9040   46.0770  166.5570 C.ar   58  C58         0.0566
   1222   C6      117.8740   45.6270  165.8090 C.ar   58  C58         0.0850
   1223    P.3    112.5950   41.5330  163.8740 P.3    59  U59         0.2141
   1224  OP1      111.7300   42.3530  162.9900 O.2    59  U59        -0.5172
   1225  OP2      112.1720   41.2530  165.2700 O.3    59  U59        -0.4373
   1226  O5'      112.8300   40.1360  163.1510 O.3    59  U59        -0.3114
   1227  C5'      112.7370   38.9130  163.8760 C.3    59  U59         0.1812
   1228  C4'      112.0340   37.8460  163.0750 C.3    59  U59         0.1773
   1229  O4'      110.6070   38.1080  163.1100 O.3    59  U59        -0.3307
   1230  C3'      112.4410   37.7890  161.6070 C.3    59  U59         0.1860
   1231  O3'      112.6470   36.4480  161.1630 O.3    59  U59        -0.3112
   1232  C2'      111.2790   38.4530  160.8630 C.3    59  U59         0.2309
   1233  O2'      111.0080   37.9050  159.5900 O.3    59  U59        -0.2156
   1234  C1'      110.0910   38.2710  161.8030 C.3    59  U59         0.2420
   1235   N.1     109.2340   39.4650  161.8210 N.ar   59  U59        -0.2534
   1236   C.2     108.4170   39.6970  160.7320 C.ar   59  U59         0.3546
   1237   O.2     108.3680   38.9490  159.7710 O.2    59  U59        -0.2443
   1238   N.3     107.6560   40.8380  160.8040 N.ar   59  U59        -0.1530
   1239   C4      107.6380   41.7550  161.8310 C.ar   59  U59         0.2846
   1240   O4      106.8980   42.7330  161.7500 O.2    59  U59        -0.2650
   1241   C5      108.5170   41.4560  162.9180 C.ar   59  U59         0.0814
   1242   C6      109.2690   40.3510  162.8740 C.ar   59  U59         0.0870
   1243    P.3    114.1180   36.0180  160.6660 P.3    60  G60         0.2141
   1244  OP1      114.0170   34.7720  159.8640 O.2    60  G60        -0.5172
   1245  OP2      115.0120   36.0550  161.8550 O.3    60  G60        -0.4373
   1246  O5'      114.5690   37.2140  159.7030 O.3    60  G60        -0.3114
   1247  C5'      113.9100   37.4620  158.4660 C.3    60  G60         0.1812
   1248  C4'      113.7230   38.9420  158.2070 C.3    60  G60         0.1773
   1249  O4'      113.6440   39.6750  159.4610 O.3    60  G60        -0.3307
   1250  C3'      114.8400   39.6360  157.4490 C.3    60  G60         0.1860
   1251  O3'      114.7640   39.4230  156.0510 O.3    60  G60        -0.3112
   1252  C2'      114.6700   41.0920  157.8680 C.3    60  G60         0.2309
   1253  O2'      113.5900   41.6950  157.1710 O.3    60  G60        -0.2156
   1254  C1'      114.2740   40.9310  159.3320 C.3    60  G60         0.2408
   1255   N9      115.4620   40.9230  160.2000 N.ar   60  G60        -0.2693
   1256   C8      115.9400   39.8300  160.8790 C.ar   60  G60         0.1817
   1257   N7      117.0160   40.0830  161.5640 N.ar   60  G60        -0.2173
   1258   C5      117.2660   41.4270  161.3180 C.ar   60  G60         0.1748
   1259   C6      118.3100   42.2580  161.7970 C.ar   60  G60         0.3023
   1260   O6      119.2430   41.9550  162.5540 O.2    60  G60        -0.2633
   1261   N.1     118.1890   43.5530  161.3000 N.ar   60  G60        -0.1709
   1262   C.2     117.2020   44.0010  160.4560 C.ar   60  G60         0.2606
   1263   N.2     117.2840   45.2940  160.1030 N.pl3  60  G60        -0.0859
   1264   N.3     116.2210   43.2350  159.9980 N.ar   60  G60        -0.1918
   1265   C4      116.3150   41.9680  160.4710 C.ar   60  G60         0.1723
   1266    P.3    115.7980   40.1550  155.0680 P.3    61  A61         0.2141
   1267  OP1      115.6910   39.5080  153.7320 O.2    61  A61        -0.5172
   1268  OP2      117.1140   40.2040  155.7570 O.3    61  A61        -0.4373
   1269  O5'      115.2210   41.6380  154.9640 O.3    61  A61        -0.3114
   1270  C5'      115.6300   42.5100  153.9300 C.3    61  A61         0.1812
   1271  C4'      116.2220   43.7880  154.4680 C.3    61  A61         0.1773
   1272  O4'      116.2330   43.7970  155.9190 O.3    61  A61        -0.3307
   1273  C3'      117.6700   44.0350  154.1100 C.3    61  A61         0.1860
   1274  O3'      117.8460   44.4530  152.7780 O.3    61  A61        -0.3112
   1275  C2'      118.0920   45.0630  155.1460 C.3    61  A61         0.2309
   1276  O2'      117.6090   46.3520  154.8030 O.3    61  A61        -0.2156
   1277  C1'      117.3340   44.5650  156.3770 C.3    61  A61         0.2408
   1278   N9      118.1930   43.7220  157.2290 N.ar   61  A61        -0.2693
   1279   C8      118.0970   42.3700  157.4610 C.ar   61  A61         0.1816
   1280   N7      119.0190   41.8970  158.2690 N.ar   61  A61        -0.2193
   1281   C5      119.7790   43.0160  158.5900 C.ar   61  A61         0.1518
   1282   C6      120.9060   43.1860  159.4120 C.ar   61  A61         0.1919
   1283   N6      121.4760   42.1810  160.0800 N.pl3  61  A61        -0.1054
   1284   N.1     121.4270   44.4300  159.5240 N.ar   61  A61        -0.2040
   1285   C.2     120.8430   45.4300  158.8520 C.ar   61  A61         0.2016
   1286   N.3     119.7840   45.3980  158.0460 N.ar   61  A61        -0.2048
   1287   C4      119.2880   44.1470  157.9550 C.ar   61  A61         0.1692
   1288    P.3    119.0740   43.8590  151.9520 P.3    62  G62         0.2141
   1289  OP1      119.0840   44.5200  150.6210 O.2    62  G62        -0.5172
   1290  OP2      119.0080   42.3780  152.0370 O.3    62  G62        -0.4373
   1291  O5'      120.3400   44.3610  152.7770 O.3    62  G62        -0.3114
   1292  C5'      120.9010   45.6300  152.4970 C.3    62  G62         0.1812
   1293  C4'      121.6780   46.2040  153.6560 C.3    62  G62         0.1773
   1294  O4'      121.3520   45.5550  154.9100 O.3    62  G62        -0.3307
   1295  C3'      123.1840   46.0790  153.5920 C.3    62  G62         0.1860
   1296  O3'      123.7840   46.9440  152.6450 O.3    62  G62        -0.3112
   1297  C2'      123.5850   46.3760  155.0290 C.3    62  G62         0.2309
   1298  O2'      123.5300   47.7730  155.2580 O.3    62  G62        -0.2156
   1299  C1'      122.4380   45.7210  155.8060 C.3    62  G62         0.2408
   1300   N9      122.8200   44.4350  156.4320 N.ar   62  G62        -0.2693
   1301   C8      122.2740   43.1870  156.2510 C.ar   62  G62         0.1817
   1302   N7      122.8410   42.2610  156.9860 N.ar   62  G62        -0.2173
   1303   C5      123.8140   42.9320  157.7130 C.ar   62  G62         0.1748
   1304   C6      124.7430   42.4540  158.6790 C.ar   62  G62         0.3023
   1305   O6      124.9060   41.3020  159.1100 O.2    62  G62        -0.2633
   1306   N.1     125.5500   43.4830  159.1610 N.ar   62  G62        -0.1709
   1307   C.2     125.4650   44.8010  158.7680 C.ar   62  G62         0.2606
   1308   N.2     126.3310   45.6440  159.3530 N.pl3  62  G62        -0.0859
   1309   N.3     124.6010   45.2580  157.8740 N.ar   62  G62        -0.1918
   1310   C4      123.8090   44.2760  157.3860 C.ar   62  G62         0.1723
   1311    P.3    125.2190   46.5600  152.0340 P.3    63  A63         0.2141
   1312  OP1      125.5010   47.4180  150.8570 O.2    63  A63        -0.5172
   1313  OP2      125.2910   45.0810  151.9040 O.3    63  A63        -0.4373
   1314  O5'      126.2380   46.9800  153.1730 O.3    63  A63        -0.3114
   1315  C5'      126.5170   48.3450  153.4360 C.3    63  A63         0.1812
   1316  C4'      127.6540   48.4750  154.4160 C.3    63  A63         0.1773
   1317  O4'      127.2690   47.8960  155.6820 O.3    63  A63        -0.3307
   1318  C3'      128.9160   47.7250  154.0380 C.3    63  A63         0.1860
   1319  O3'      129.7250   48.4390  153.1310 O.3    63  A63        -0.3112
   1320  C2'      129.5790   47.4600  155.3800 C.3    63  A63         0.2309
   1321  O2'      130.2840   48.6000  155.8360 O.3    63  A63        -0.2156
   1322  C1'      128.3680   47.2410  156.2730 C.3    63  A63         0.2408
   1323   N9      128.0490   45.8150  156.3700 N.ar   63  A63        -0.2693
   1324   C8      127.0190   45.1170  155.7860 C.ar   63  A63         0.1816
   1325   N7      127.0360   43.8430  156.0820 N.ar   63  A63        -0.2193
   1326   C5      128.1560   43.7250  156.9050 C.ar   63  A63         0.1518
   1327   C6      128.7310   42.6360  157.5610 C.ar   63  A63         0.1919
   1328   N6      128.2160   41.4110  157.4710 N.pl3  63  A63        -0.1054
   1329   N.1     129.8460   42.8560  158.3010 N.ar   63  A63        -0.2040
   1330   C.2     130.3430   44.1000  158.3800 C.ar   63  A63         0.2016
   1331   N.3     129.8890   45.2100  157.8110 N.ar   63  A63        -0.2048
   1332   C4      128.7930   44.9320  157.0850 C.ar   63  A63         0.1692
   1333    P.3    130.5980   47.6220  152.0710 P.3    64  C64         0.2141
   1334  OP1      131.1630   48.6460  151.1490 O.2    64  C64        -0.5172
   1335  OP2      129.7590   46.5110  151.5410 O.3    64  C64        -0.4373
   1336  O5'      131.7910   47.0290  152.9520 O.3    64  C64        -0.3114
   1337  C5'      132.8190   47.8910  153.4190 C.3    64  C64         0.1812
   1338  C4'      133.7460   47.2070  154.3840 C.3    64  C64         0.1773
   1339  O4'      132.9820   46.5340  155.4090 O.3    64  C64        -0.3307
   1340  C3'      134.6060   46.1170  153.7970 C.3    64  C64         0.1860
   1341  O3'      135.7310   46.6360  153.1240 O.3    64  C64        -0.3112
   1342  C2'      134.9540   45.2770  155.0180 C.3    64  C64         0.2309
   1343  O2'      135.9760   45.9120  155.7730 O.3    64  C64        -0.2156
   1344  C1'      133.6620   45.3660  155.8190 C.3    64  C64         0.2420
   1345   N.1     132.7590   44.2110  155.6240 N.ar   64  C64        -0.2535
   1346   C.2     132.9770   43.0280  156.3440 C.ar   64  C64         0.3532
   1347   O.2     133.9530   42.9380  157.1090 O.2    64  C64        -0.2443
   1348   N.3     132.1220   41.9920  156.1760 N.ar   64  C64        -0.1739
   1349   C4      131.0780   42.1100  155.3580 C.ar   64  C64         0.1759
   1350   N.4     130.2510   41.0650  155.2410 N.pl3  64  C64        -0.1070
   1351   C5      130.8340   43.3080  154.6260 C.ar   64  C64         0.0566
   1352   C6      131.6860   44.3240  154.7910 C.ar   64  C64         0.0850
   1353    P.3    136.0490   46.1500  151.6330 P.3    65  A65         0.2141
   1354  OP1      137.1520   47.0120  151.1280 O.3    65  A65        -0.4373
   1355  OP2      134.7620   46.0570  150.8870 O.2    65  A65        -0.5172
   1356  O5'      136.6000   44.6710  151.8400 O.3    65  A65        -0.3114
   1357  C5'      137.6940   44.4130  152.7150 C.3    65  A65         0.1812
   1358  C4'      138.5900   43.3380  152.1610 C.3    65  A65         0.1773
   1359  O4'      137.8250   42.1070  152.0420 O.3    65  A65        -0.3307
   1360  C3'      139.1430   43.6350  150.7750 C.3    65  A65         0.1860
   1361  O3'      140.4540   43.0910  150.6410 O.3    65  A65        -0.3112
   1362  C2'      138.1780   42.8940  149.8540 C.3    65  A65         0.2309
   1363  O2'      138.7430   42.5240  148.6140 O.3    65  A65        -0.2156
   1364  C1'      137.8090   41.6740  150.6970 C.3    65  A65         0.2408
   1365   N9      136.4730   41.1320  150.4090 N.ar   65  A65        -0.2693
   1366   C8      135.4870   41.7080  149.6470 C.ar   65  A65         0.1816
   1367   N7      134.3840   40.9950  149.5600 N.ar   65  A65        -0.2193
   1368   C5      134.6620   39.8580  150.3100 C.ar   65  A65         0.1518
   1369   C6      133.9050   38.7030  150.6150 C.ar   65  A65         0.1919
   1370   N6      132.6620   38.4740  150.1810 N.pl3  65  A65        -0.1054
   1371   N.1     134.4850   37.7600  151.3960 N.ar   65  A65        -0.2040
   1372   C.2     135.7340   37.9760  151.8300 C.ar   65  A65         0.2016
   1373   N.3     136.5450   39.0110  151.6160 N.ar   65  A65        -0.2048
   1374   C4      135.9430   39.9350  150.8420 C.ar   65  A65         0.1692
   1375    P.3    141.5730   43.9360  149.8610 P.3    66  G66         0.2141
   1376  OP1      140.8790   45.1160  149.2810 O.3    66  G66        -0.4373
   1377  OP2      142.3580   43.0340  148.9800 O.2    66  G66        -0.5172
   1378  O5'      142.5590   44.4130  151.0200 O.3    66  G66        -0.3114
   1379  C5'      143.5230   43.5220  151.5740 C.3    66  G66         0.1812
   1380  C4'      143.9930   43.9620  152.9400 C.3    66  G66         0.1773
   1381  O4'      145.0480   44.9510  152.8000 O.3    66  G66        -0.3307
   1382  C3'      142.9230   44.5920  153.8310 C.3    66  G66         0.1860
   1383  O3'      143.1330   44.2000  155.1850 O.3    66  G66        -0.3112
   1384  C2'      143.1920   46.0890  153.6930 C.3    66  G66         0.2309
   1385  O2'      142.7740   46.8540  154.8070 O.3    66  G66        -0.2156
   1386  C1'      144.7110   46.1220  153.5180 C.3    66  G66         0.2408
   1387   N9      145.1870   47.2730  152.7450 N.ar   66  G66        -0.2693
   1388   C8      144.7260   47.6390  151.5080 C.ar   66  G66         0.1817
   1389   N7      145.3110   48.6980  151.0240 N.ar   66  G66        -0.2173
   1390   C5      146.2230   49.0480  152.0030 C.ar   66  G66         0.1748
   1391   C6      147.1360   50.1270  152.0300 C.ar   66  G66         0.3023
   1392   O6      147.3360   50.9980  151.1760 O.2    66  G66        -0.2633
   1393   N.1     147.8600   50.1240  153.2080 N.ar   66  G66        -0.1709
   1394   C.2     147.7340   49.2070  154.2200 C.ar   66  G66         0.2606
   1395   N.2     148.5460   49.3920  155.2700 N.pl3  66  G66        -0.0859
   1396   N.3     146.8810   48.1940  154.2110 N.ar   66  G66        -0.1918
   1397   C4      146.1620   48.1800  153.0740 C.ar   66  G66         0.1723
   1398    P.3    141.9150   43.5900  156.0340 P.3    67  C67         0.2141
   1399  OP1      140.8090   43.2610  155.0980 O.2    67  C67        -0.5172
   1400  OP2      141.6690   44.4870  157.1910 O.3    67  C67        -0.4373
   1401  O5'      142.4940   42.2100  156.5680 O.3    67  C67        -0.3114
   1402  C5'      143.4550   42.1700  157.6110 C.3    67  C67         0.1812
   1403  C4'      143.2360   40.9550  158.4730 C.3    67  C67         0.1773
   1404  O4'      141.8600   40.9350  158.9440 O.3    67  C67        -0.3307
   1405  C3'      143.3890   39.6200  157.7720 C.3    67  C67         0.1860
   1406  O3'      144.7430   39.2320  157.6010 O.3    67  C67        -0.3112
   1407  C2'      142.5770   38.6840  158.6640 C.3    67  C67         0.2309
   1408  O2'      143.3230   38.3140  159.8170 O.3    67  C67        -0.2156
   1409  C1'      141.4320   39.5970  159.1050 C.3    67  C67         0.2420
   1410   N.1     140.1860   39.3770  158.3320 N.ar   67  C67        -0.2535
   1411   C.2     139.4620   38.1810  158.5280 C.ar   67  C67         0.3532
   1412   O.2     139.8620   37.3080  159.3210 O.2    67  C67        -0.2443
   1413   N.3     138.3190   37.9840  157.8360 N.ar   67  C67        -0.1739
   1414   C4      137.8830   38.9080  156.9790 C.ar   67  C67         0.1759
   1415   N.4     136.7420   38.6420  156.3330 N.pl3  67  C67        -0.1070
   1416   C5      138.5920   40.1330  156.7560 C.ar   67  C67         0.0566
   1417   C6      139.7250   40.3220  157.4520 C.ar   67  C67         0.0850
   1418    P.3    145.1950   38.4300  156.2850 P.3    68  C68         0.2141
   1419  OP1      146.6720   38.5720  156.1480 O.3    68  C68        -0.4373
   1420  OP2      144.3170   38.8550  155.1660 O.2    68  C68        -0.5172
   1421  O5'      144.8490   36.9080  156.6150 O.3    68  C68        -0.3114
   1422  C5'      144.9400   36.4240  157.9450 C.3    68  C68         0.1812
   1423  C4'      144.1590   35.1500  158.1190 C.3    68  C68         0.1773
   1424  O4'      142.7510   35.4120  158.3780 O.3    68  C68        -0.3307
   1425  C3'      144.1350   34.2420  156.9120 C.3    68  C68         0.1860
   1426  O3'      145.3620   33.5570  156.7260 O.3    68  C68        -0.3112
   1427  C2'      142.9350   33.3430  157.2100 C.3    68  C68         0.2309
   1428  O2'      143.2830   32.3310  158.1410 O.3    68  C68        -0.2156
   1429  C1'      141.9750   34.3280  157.8860 C.3    68  C68         0.2420
   1430   N.1     140.9310   34.8220  156.9450 N.ar   68  C68        -0.2535
   1431   C.2     139.8210   33.9940  156.6480 C.ar   68  C68         0.3532
   1432   O.2     139.7080   32.8740  157.1640 O.2    68  C68        -0.2443
   1433   N.3     138.8600   34.4150  155.7950 N.ar   68  C68        -0.1739
   1434   C4      138.9620   35.6160  155.2270 C.ar   68  C68         0.1759
   1435   N.4     137.9840   35.9810  154.3940 N.pl3  68  C68        -0.1070
   1436   C5      140.0650   36.4870  155.4940 C.ar   68  C68         0.0566
   1437   C6      141.0170   36.0530  156.3460 C.ar   68  C68         0.0850
   1438    P.3    145.6720   32.8340  155.3250 P.3    69  G69         0.2141
   1439  OP1      146.7960   31.8830  155.5330 O.3    69  G69        -0.4373
   1440  OP2      145.7760   33.8820  154.2740 O.2    69  G69        -0.5172
   1441  O5'      144.3710   31.9470  155.1110 O.3    69  G69        -0.3114
   1442  C5'      144.1120   31.2450  153.9180 C.3    69  G69         0.1812
   1443  C4'      142.8150   30.4890  154.0430 C.3    69  G69         0.1773
   1444  O4'      141.7870   31.3480  154.6140 O.3    69  G69        -0.3307
   1445  C3'      142.2270   30.0360  152.7270 C.3    69  G69         0.1860
   1446  O3'      142.8540   28.8700  152.2310 O.3    69  G69        -0.3112
   1447  C2'      140.7410   29.9160  153.0370 C.3    69  G69         0.2309
   1448  O2'      140.4640   28.7260  153.7490 O.3    69  G69        -0.2156
   1449  C1'      140.5450   31.1070  153.9770 C.3    69  G69         0.2408
   1450   N9      140.1900   32.3250  153.2210 N.ar   69  G69        -0.2693
   1451   C8      140.9060   33.5020  153.2020 C.ar   69  G69         0.1817
   1452   N7      140.3830   34.4220  152.4340 N.ar   69  G69        -0.2173
   1453   C5      139.2610   33.8100  151.8980 C.ar   69  G69         0.1748
   1454   C6      138.3010   34.3240  150.9880 C.ar   69  G69         0.3023
   1455   O6      138.2620   35.4550  150.4650 O.2    69  G69        -0.2633
   1456   N.1     137.3130   33.3680  150.7140 N.ar   69  G69        -0.1709
   1457   C.2     137.2660   32.0900  151.2420 C.ar   69  G69         0.2606
   1458   N.2     136.2370   31.3290  150.8480 N.pl3  69  G69        -0.0859
   1459   N.3     138.1600   31.6000  152.0890 N.ar   69  G69        -0.1918
   1460   C4      139.1230   32.5120  152.3700 C.ar   69  G69         0.1723
   1461    P.3    143.6590   28.9700  150.8470 P.3    70  G70         0.2141
   1462  OP1      144.7180   27.9190  150.8140 O.3    70  G70        -0.4373
   1463  OP2      144.1220   30.3820  150.6810 O.2    70  G70        -0.5172
   1464  O5'      142.5170   28.6320  149.7850 O.3    70  G70        -0.3114
   1465  C5'      141.7390   27.4510  149.9260 C.3    70  G70         0.1812
   1466  C4'      140.3750   27.5820  149.2900 C.3    70  G70         0.1773
   1467  O4'      139.6100   28.6340  149.9430 O.3    70  G70        -0.3307
   1468  C3'      140.3520   27.9740  147.8220 C.3    70  G70         0.1860
   1469  O3'      140.6280   26.8990  146.9490 O.3    70  G70        -0.3112
   1470  C2'      138.9550   28.5490  147.6700 C.3    70  G70         0.2309
   1471  O2'      137.9950   27.5030  147.6710 O.3    70  G70        -0.2156
   1472  C1'      138.8260   29.3180  148.9850 C.3    70  G70         0.2408
   1473   N9      139.3640   30.6880  148.8620 N.ar   70  G70        -0.2693
   1474   C8      140.4810   31.1860  149.5010 C.ar   70  G70         0.1817
   1475   N7      140.7520   32.4340  149.2100 N.ar   70  G70        -0.2173
   1476   C5      139.7420   32.7790  148.3090 C.ar   70  G70         0.1748
   1477   C6      139.5030   34.0110  147.6390 C.ar   70  G70         0.3023
   1478   O6      140.1540   35.0670  147.7250 O.2    70  G70        -0.2633
   1479   N.1     138.3830   33.9290  146.8040 N.ar   70  G70        -0.1709
   1480   C.2     137.5860   32.8220  146.6340 C.ar   70  G70         0.2606
   1481   N.2     136.5610   32.9830  145.7830 N.pl3  70  G70        -0.0859
   1482   N.3     137.7890   31.6620  147.2540 N.ar   70  G70        -0.1918
   1483   C4      138.8770   31.7130  148.0740 C.ar   70  G70         0.1723
   1484    P.3    141.6400   27.1190  145.7210 P.3    71  G71         0.2141
   1485  OP1      142.0620   25.7710  145.2460 O.2    71  G71        -0.5172
   1486  OP2      142.6690   28.1160  146.1280 O.3    71  G71        -0.4373
   1487  O5'      140.7370   27.8150  144.6030 O.3    71  G71        -0.3114
   1488  C5'      139.4990   27.2450  144.2060 C.3    71  G71         0.1812
   1489  C4'      138.7080   28.1870  143.3330 C.3    71  G71         0.1773
   1490  O4'      138.2610   29.3300  144.1060 O.3    71  G71        -0.3307
   1491  C3'      139.4490   28.8190  142.1670 C.3    71  G71         0.1860
   1492  O3'      139.6100   27.9570  141.0590 O.3    71  G71        -0.3112
   1493  C2'      138.5900   30.0330  141.8660 C.3    71  G71         0.2309
   1494  O2'      137.4100   29.6460  141.1790 O.3    71  G71        -0.2156
   1495  C1'      138.2120   30.4740  143.2750 C.3    71  G71         0.2408
   1496   N9      139.1720   31.4650  143.7740 N.ar   71  G71        -0.2693
   1497   C8      140.1740   31.2940  144.6870 C.ar   71  G71         0.1817
   1498   N7      140.8620   32.3910  144.8820 N.ar   71  G71        -0.2173
   1499   C5      140.2710   33.3230  144.0410 C.ar   71  G71         0.1748
   1500   C6      140.5630   34.6870  143.8120 C.ar   71  G71         0.3023
   1501   O6      141.4420   35.3910  144.3210 O.2    71  G71        -0.2633
   1502   N.1     139.7060   35.2390  142.8720 N.ar   71  G71        -0.1709
   1503   C.2     138.7010   34.5780  142.2260 C.ar   71  G71         0.2606
   1504   N.2     137.9920   35.2990  141.3550 N.pl3  71  G71        -0.0859
   1505   N.3     138.4100   33.3070  142.4260 N.ar   71  G71        -0.1918
   1506   C4      139.2330   32.7580  143.3440 C.ar   71  G71         0.1723
   1507    P.3    140.8310   28.1800  140.0400 P.3    72  C72         0.2141
   1508  OP1      140.7520   27.0750  139.0550 O.2    72  C72        -0.5172
   1509  OP2      142.0660   28.4290  140.8220 O.3    72  C72        -0.4373
   1510  O5'      140.4830   29.5430  139.2890 O.3    72  C72        -0.3114
   1511  C5'      139.3240   29.6620  138.4790 C.3    72  C72         0.1812
   1512  C4'      139.2550   31.0070  137.7990 C.3    72  C72         0.1773
   1513  O4'      139.0960   32.0630  138.7830 O.3    72  C72        -0.3307
   1514  C3'      140.4940   31.4180  137.0340 C.3    72  C72         0.1860
   1515  O3'      140.5990   30.7920  135.7760 O.3    72  C72        -0.3112
   1516  C2'      140.3590   32.9320  136.9790 C.3    72  C72         0.2309
   1517  O2'      139.3890   33.3120  136.0150 O.3    72  C72        -0.2156
   1518  C1'      139.7930   33.2190  138.3640 C.3    72  C72         0.2420
   1519   N.1     140.8560   33.5060  139.3530 N.ar   72  C72        -0.2535
   1520   C.2     141.2950   34.8210  139.5110 C.ar   72  C72         0.3532
   1521   O.2     140.8090   35.7160  138.8160 O.2    72  C72        -0.2443
   1522   N.3     142.2460   35.0820  140.4260 N.ar   72  C72        -0.1739
   1523   C4      142.7510   34.0960  141.1680 C.ar   72  C72         0.1759
   1524   N.4     143.6920   34.3990  142.0600 N.pl3  72  C72        -0.1070
   1525   C5      142.3270   32.7460  141.0310 C.ar   72  C72         0.0566
   1526   C6      141.3830   32.5060  140.1200 C.ar   72  C72         0.0850
   1527    P.3    142.0470   30.6250  135.1110 P.3    73  U73         0.2141
   1528  OP1      141.7770   30.4220  133.6630 O.2    73  U73        -0.5172
   1529  OP2      142.8610   29.6410  135.8690 O.3    73  U73        -0.4373
   1530  O5'      142.7340   32.0110  135.4710 O.3    73  U73        -0.3114
   1531  C5'      143.6610   32.6400  134.6170 C.3    73  U73         0.1812
   1532  C4'      143.5050   34.1310  134.6960 C.3    73  U73         0.1773
   1533  O4'      143.0300   34.5150  136.0140 O.3    73  U73        -0.3307
   1534  C3'      144.7810   34.9250  134.5250 C.3    73  U73         0.1860
   1535  O3'      145.1620   35.0410  133.1710 O.3    73  U73        -0.3112
   1536  C2'      144.4380   36.2450  135.1990 C.3    73  U73         0.2309
   1537  O2'      143.6250   37.0490  134.3600 O.3    73  U73        -0.2156
   1538  C1'      143.5890   35.7590  136.3790 C.3    73  U73         0.2420
   1539   N.1     144.4100   35.5660  137.5900 N.ar   73  U73        -0.2534
   1540   C.2     144.9400   36.6880  138.1750 C.ar   73  U73         0.3546
   1541   O.2     144.7470   37.8080  137.7570 O.2    73  U73        -0.2443
   1542   N.3     145.7070   36.4570  139.2860 N.ar   73  U73        -0.1530
   1543   C4      146.0030   35.2460  139.8670 C.ar   73  U73         0.2846
   1544   O4      146.7120   35.2270  140.8700 O.2    73  U73        -0.2650
   1545   C5      145.4170   34.1240  139.2050 C.ar   73  U73         0.0814
   1546   C6      144.6650   34.3200  138.1130 C.ar   73  U73         0.0870
   1547    P.3    146.7090   35.0820  132.7830 P.3    74  G74         0.2141
   1548  OP1      146.7800   34.9540  131.3080 O.2    74  G74        -0.5172
   1549  OP2      147.4760   34.1220  133.6090 O.3    74  G74        -0.4373
   1550  O5'      147.1190   36.5570  133.1980 O.3    74  G74        -0.3114
   1551  C5'      146.4150   37.6570  132.6560 C.3    74  G74         0.1812
   1552  C4'      146.9140   38.9600  133.2090 C.3    74  G74         0.1773
   1553  O4'      146.5760   39.0650  134.6120 O.3    74  G74        -0.3307
   1554  C3'      148.4160   39.1640  133.1890 C.3    74  G74         0.1860
   1555  O3'      148.9030   39.5180  131.9070 O.3    74  G74        -0.3112
   1556  C2'      148.6060   40.2390  134.2460 C.3    74  G74         0.2309
   1557  O2'      148.2240   41.5090  133.7400 O.3    74  G74        -0.2156
   1558  C1'      147.5640   39.8190  135.2830 C.3    74  G74         0.2408
   1559   N9      148.1520   38.9970  136.3520 N.ar   74  G74        -0.2693
   1560   C8      148.1490   37.6280  136.4810 C.ar   74  G74         0.1817
   1561   N7      148.7640   37.2210  137.5630 N.ar   74  G74        -0.2173
   1562   C5      149.2030   38.3960  138.1720 C.ar   74  G74         0.1748
   1563   C6      149.9280   38.6140  139.3770 C.ar   74  G74         0.3023
   1564   O6      150.3610   37.7750  140.1770 O.2    74  G74        -0.2633
   1565   N.1     150.1520   39.9700  139.6180 N.ar   74  G74        -0.1709
   1566   C.2     149.7330   40.9890  138.8050 C.ar   74  G74         0.2606
   1567   N.2     150.0530   42.2230  139.2080 N.pl3  74  G74        -0.0859
   1568   N.3     149.0540   40.8070  137.6800 N.ar   74  G74        -0.1918
   1569   C4      148.8290   39.4990  137.4320 C.ar   74  G74         0.1723
   1570    P.3    150.4280   39.2200  131.5060 P.3    75  C75         0.2141
   1571  OP1      150.5560   39.4440  130.0430 O.2    75  C75        -0.5172
   1572  OP2      150.8560   37.9310  132.0920 O.3    75  C75        -0.4373
   1573  O5'      151.2270   40.3490  132.2860 O.3    75  C75        -0.3114
   1574  C5'      151.0610   41.7130  131.9520 C.3    75  C75         0.1812
   1575  C4'      152.1530   42.5570  132.5570 C.3    75  C75         0.1773
   1576  O4'      151.9340   42.7080  133.9780 O.3    75  C75        -0.3307
   1577  C3'      153.5580   41.9930  132.4650 C.3    75  C75         0.1860
   1578  O3'      154.1430   42.2320  131.2030 O.3    75  C75        -0.3112
   1579  C2'      154.2760   42.7070  133.5930 C.3    75  C75         0.2309
   1580  O2'      154.6150   44.0220  133.1890 O.3    75  C75        -0.2156
   1581  C1'      153.1710   42.8040  134.6450 C.3    75  C75         0.2420
   1582   N.1     153.2400   41.7420  135.6770 N.ar   75  C75        -0.2535
   1583   C.2     154.2550   41.7670  136.6350 C.ar   75  C75         0.3532
   1584   O.2     155.1110   42.6490  136.5990 O.2    75  C75        -0.2443
   1585   N.3     154.3000   40.8250  137.5900 N.ar   75  C75        -0.1739
   1586   C4      153.3780   39.8670  137.6240 C.ar   75  C75         0.1759
   1587   N.4     153.4650   38.9520  138.5850 N.pl3  75  C75        -0.1070
   1588   C5      152.3270   39.8160  136.6670 C.ar   75  C75         0.0566
   1589   C6      152.2940   40.7680  135.7250 C.ar   75  C75         0.0850
   1590    P.3    155.2210   41.2120  130.6110 P.3    76  C76         0.2141
   1591  OP1      155.5990   41.7610  129.2840 O.2    76  C76        -0.5172
   1592  OP2      154.6930   39.8370  130.7910 O.3    76  C76        -0.4373
   1593  O5'      156.4750   41.3640  131.5770 O.3    76  C76        -0.3114
   1594  C5'      157.1810   42.5920  131.6790 C.3    76  C76         0.1812
   1595  C4'      158.3610   42.4500  132.6040 C.3    76  C76         0.1773
   1596  O4'      157.9070   42.3740  133.9790 O.3    76  C76        -0.3307
   1597  C3'      159.1900   41.1880  132.4220 C.3    76  C76         0.1860
   1598  O3'      160.0990   41.2820  131.3370 O.3    76  C76        -0.3112
   1599  C2'      159.8680   41.0410  133.7750 C.3    76  C76         0.2309
   1600  O2'      160.9760   41.9200  133.8650 O.3    76  C76        -0.2156
   1601  C1'      158.7730   41.5440  134.7240 C.3    76  C76         0.2420
   1602   N.1     157.9800   40.4490  135.3370 N.ar   76  C76        -0.2535
   1603   C.2     158.4770   39.8110  136.4700 C.ar   76  C76         0.3532
   1604   O.2     159.5780   40.1600  136.9180 O.2    76  C76        -0.2443
   1605   N.3     157.7470   38.8180  137.0390 N.ar   76  C76        -0.1739
   1606   C4      156.5670   38.4650  136.5340 C.ar   76  C76         0.1759
   1607   N.4     155.8980   37.4940  137.1380 N.pl3  76  C76        -0.1070
   1608   C5      156.0290   39.0900  135.3810 C.ar   76  C76         0.0566
   1609   C6      156.7670   40.0660  134.8350 C.ar   76  C76         0.0850
   1610    P.3    160.5400   39.9710  130.5200 P.3    77  G77         0.2141
   1611  OP1      161.1510   40.4200  129.2450 O.2    77  G77        -0.5172
   1612  OP2      159.4260   38.9920  130.5140 O.3    77  G77        -0.4373
   1613  O5'      161.7210   39.3600  131.3810 O.3    77  G77        -0.3114
   1614  C5'      162.8380   40.1530  131.7530 C.3    77  G77         0.1812
   1615  C4'      163.5950   39.4860  132.8630 C.3    77  G77         0.1773
   1616  O4'      162.6610   39.1910  133.9450 O.3    77  G77        -0.3307
   1617  C3'      164.2270   38.1540  132.4720 C.3    77  G77         0.1860
   1618  O3'      165.4190   37.9570  133.2260 O.3    77  G77        -0.3112
   1619  C2'      163.1790   37.1480  132.9270 C.3    77  G77         0.2309
   1620  O2'      163.6660   35.8490  133.1660 O.3    77  G77        -0.2156
   1621  C1'      162.6700   37.8030  134.2080 C.3    77  G77         0.2408
   1622   N9      161.3370   37.3290  134.6040 N.ar   77  G77        -0.2693
   1623   C8      160.2080   37.2720  133.8270 C.ar   77  G77         0.1817
   1624   N7      159.1830   36.7410  134.4390 N.ar   77  G77        -0.2173
   1625   C5      159.6710   36.3830  135.6800 C.ar   77  G77         0.1748
   1626   C6      159.0150   35.7450  136.7670 C.ar   77  G77         0.3023
   1627   O6      157.8310   35.3800  136.8230 O.2    77  G77        -0.2633
   1628   N.1     159.8750   35.5770  137.8590 N.ar   77  G77        -0.1709
   1629   C.2     161.1970   35.9680  137.8680 C.ar   77  G77         0.2606
   1630   N.2     161.8940   35.7420  138.9820 N.pl3  77  G77        -0.0859
   1631   N.3     161.8120   36.5510  136.8550 N.ar   77  G77        -0.1918
   1632   C4      160.9950   36.7350  135.7990 C.ar   77  G77         0.1723
   1633    P.3    166.8500   38.3810  132.6310 P.3    78  A78         0.2141
   1634  OP1      166.7320   39.7050  131.9680 O.3    78  A78        -0.4373
   1635  OP2      167.3840   37.2370  131.8530 O.2    78  A78        -0.5172
   1636  O5'      167.7410   38.5460  133.9420 O.3    78  A78        -0.3114
   1637  C5'      167.8950   37.4570  134.8350 C.3    78  A78         0.1812
   1638  C4'      168.6020   37.8450  136.1090 C.3    78  A78         0.1773
   1639  O4'      167.6890   38.5790  136.9610 O.3    78  A78        -0.3307
   1640  C3'      169.0640   36.6680  136.9620 C.3    78  A78         0.1860
   1641  O3'      170.3270   36.1670  136.5480 O.3    78  A78        -0.3112
   1642  C2'      169.0640   37.2390  138.3790 C.3    78  A78         0.2309
   1643  O2'      170.2750   37.9320  138.6450 O.3    78  A78        -0.2156
   1644  C1'      167.9200   38.2550  138.3160 C.3    78  A78         0.2408
   1645   N9      166.6600   37.7580  138.9020 N.ar   78  A78        -0.2693
   1646   C8      165.4820   37.5510  138.2380 C.ar   78  A78         0.1816
   1647   N7      164.5020   37.1330  138.9990 N.ar   78  A78        -0.2193
   1648   C5      165.0770   37.0530  140.2580 C.ar   78  A78         0.1518
   1649   C6      164.5650   36.6770  141.5130 C.ar   78  A78         0.1919
   1650   N6      163.3070   36.2920  141.7020 N.pl3  78  A78        -0.1054
   1651   N.1     165.3950   36.7160  142.5840 N.ar   78  A78        -0.2040
   1652   C.2     166.6610   37.1120  142.3970 C.ar   78  A78         0.2016
   1653   N.3     167.2510   37.4920  141.2630 N.ar   78  A78        -0.2048
   1654   C4      166.4030   37.4420  140.2190 C.ar   78  A78         0.1692
   1655    P.3    170.5920   34.5860  136.3850 P.3    79  A79         0.2141
   1656  OP1      171.8770   34.4060  135.6610 O.2    79  A79        -0.5172
   1657  OP2      169.3640   33.9140  135.9030 O.3    79  A79        -0.4373
   1658  O5'      170.7950   34.0900  137.8810 O.3    79  A79        -0.3114
   1659  C5'      171.5980   34.8270  138.7880 C.3    79  A79         0.1812
   1660  C4'      171.3510   34.3720  140.2020 C.3    79  A79         0.1773
   1661  O4'      170.1920   35.0480  140.7570 O.3    79  A79        -0.3307
   1662  C3'      171.0290   32.8950  140.3420 C.3    79  A79         0.1860
   1663  O3'      172.2030   32.1010  140.3360 O.3    79  A79        -0.3112
   1664  C2'      170.2440   32.8410  141.6470 C.3    79  A79         0.2309
   1665  O2'      171.1340   32.8600  142.7480 O.3    79  A79        -0.2156
   1666  C1'      169.4770   34.1700  141.6030 C.3    79  A79         0.2408
   1667   N9      168.1040   34.0070  141.0710 N.ar   79  A79        -0.2693
   1668   C8      167.6920   34.0830  139.7630 C.ar   79  A79         0.1816
   1669   N7      166.4100   33.8970  139.5860 N.ar   79  A79        -0.2193
   1670   C5      165.9380   33.6740  140.8670 C.ar   79  A79         0.1518
   1671   C6      164.6420   33.4050  141.3630 C.ar   79  A79         0.1919
   1672   N6      163.5420   33.3110  140.6060 N.pl3  79  A79        -0.1054
   1673   N.1     164.5110   33.2440  142.6940 N.ar   79  A79        -0.2040
   1674   C.2     165.6130   33.3410  143.4610 C.ar   79  A79         0.2016
   1675   N.3     166.8820   33.5880  143.1210 N.ar   79  A79        -0.2048
   1676   C4      166.9720   33.7430  141.7890 C.ar   79  A79         0.1692
   1677    P.3    172.1150   30.5100  140.1430 P.3    80  A80         0.2141
   1678  OP1      173.5070   29.9920  140.2150 O.3    80  A80        -0.4373
   1679  OP2      171.2760   30.1970  138.9560 O.2    80  A80        -0.5172
   1680  O5'      171.3200   30.0230  141.4310 O.3    80  A80        -0.3114
   1681  C5'      170.4040   28.9470  141.3500 C.3    80  A80         0.1812
   1682  C4'      169.6610   28.7570  142.6460 C.3    80  A80         0.1773
   1683  O4'      168.7300   29.8490  142.8760 O.3    80  A80        -0.3307
   1684  C3'      168.7870   27.5260  142.6920 C.3    80  A80         0.1860
   1685  O3'      169.5270   26.3550  142.9500 O.3    80  A80        -0.3112
   1686  C2'      167.7740   27.8680  143.7740 C.3    80  A80         0.2309
   1687  O2'      168.3300   27.6920  145.0680 O.3    80  A80        -0.2156
   1688  C1'      167.5670   29.3580  143.5190 C.3    80  A80         0.2408
   1689   N9      166.3940   29.5780  142.6520 N.ar   80  A80        -0.2693
   1690   C8      165.0930   29.3040  143.0110 C.ar   80  A80         0.1816
   1691   N7      164.2050   29.5500  142.0760 N.ar   80  A80        -0.2193
   1692   C5      164.9850   29.9970  141.0260 C.ar   80  A80         0.1518
   1693   C6      164.6160   30.4180  139.7460 C.ar   80  A80         0.1919
   1694   N6      163.3360   30.4430  139.3430 N.pl3  80  A80        -0.1054
   1695   N.1     165.6180   30.8140  138.9210 N.ar   80  A80        -0.2040
   1696   C.2     166.8900   30.7810  139.3680 C.ar   80  A80         0.2016
   1697   N.3     167.3540   30.4080  140.5570 N.ar   80  A80        -0.2048
   1698   C4      166.3370   30.0130  141.3480 C.ar   80  A80         0.1692
   1699    P.3    169.4470   25.1520  141.9070 P.3    81  U81         0.2141
   1700  OP1      170.1190   23.9970  142.5730 O.3    81  U81        -0.4373
   1701  OP2      169.9120   25.6490  140.5740 O.2    81  U81        -0.5172
   1702  O5'      167.8990   24.7680  141.9150 O.3    81  U81        -0.3114
   1703  C5'      167.2780   24.4420  143.1470 C.3    81  U81         0.1812
   1704  C4'      165.7760   24.4470  143.0570 C.3    81  U81         0.1773
   1705  O4'      165.2640   25.7710  142.7370 O.3    81  U81        -0.3307
   1706  C3'      165.1760   23.5640  141.9830 C.3    81  U81         0.1860
   1707  O3'      165.2060   22.1920  142.3170 O.3    81  U81        -0.3112
   1708  C2'      163.7790   24.1460  141.8440 C.3    81  U81         0.2309
   1709  O2'      162.9760   23.7570  142.9460 O.3    81  U81        -0.2156
   1710  C1'      164.0790   25.6440  141.9650 C.3    81  U81         0.2420
   1711   N.1     164.3180   26.2490  140.6310 N.ar   81  U81        -0.2534
   1712   C.2     163.2350   26.4410  139.7790 C.ar   81  U81         0.3546
   1713   O.2     162.0760   26.1450  140.0720 O.2    81  U81        -0.2443
   1714   N.3     163.5680   27.0020  138.5650 N.ar   81  U81        -0.1530
   1715   C4      164.8270   27.3650  138.1240 C.ar   81  U81         0.2846
   1716   O4      164.9730   27.8420  137.0040 O.2    81  U81        -0.2650
   1717   C5      165.8830   27.1300  139.0450 C.ar   81  U81         0.0814
   1718   C6      165.5940   26.5970  140.2350 C.ar   81  U81         0.0870
   1719    P.3    165.6640   21.1380  141.2000 P.3    82  A82         0.2141
   1720  OP1      165.9560   19.8470  141.8890 O.3    82  A82        -0.4373
   1721  OP2      166.7180   21.8100  140.3880 O.2    82  A82        -0.5172
   1722  O5'      164.3520   20.9690  140.3020 O.3    82  A82        -0.3114
   1723  C5'      163.1040   20.6630  140.9160 C.3    82  A82         0.1812
   1724  C4'      161.9310   20.9930  140.0260 C.3    82  A82         0.1773
   1725  O4'      161.8430   22.4240  139.8200 O.3    82  A82        -0.3307
   1726  C3'      161.9790   20.4240  138.6190 C.3    82  A82         0.1860
   1727  O3'      161.5960   19.0590  138.5590 O.3    82  A82        -0.3112
   1728  C2'      161.0470   21.3550  137.8550 C.3    82  A82         0.2309
   1729  O2'      159.6930   21.0210  138.1090 O.3    82  A82        -0.2156
   1730  C1'      161.3470   22.6910  138.5230 C.3    82  A82         0.2408
   1731   N9      162.3630   23.4430  137.7750 N.ar   82  A82        -0.2693
   1732   C8      163.6940   23.6330  138.0760 C.ar   82  A82         0.1816
   1733   N7      164.3220   24.3680  137.1760 N.ar   82  A82        -0.2193
   1734   C5      163.3340   24.6730  136.2370 C.ar   82  A82         0.1518
   1735   C6      163.3320   25.4190  135.0480 C.ar   82  A82         0.1919
   1736   N6      164.4040   26.0350  134.5410 N.pl3  82  A82        -0.1054
   1737   N.1     162.1690   25.5060  134.3660 N.ar   82  A82        -0.2040
   1738   C.2     161.0830   24.8940  134.8440 C.ar   82  A82         0.2016
   1739   N.3     160.9540   24.1660  135.9470 N.ar   82  A82        -0.2048
   1740   C4      162.1270   24.0990  136.5960 C.ar   82  A82         0.1692
   1741    P.3    162.2920   18.0790  137.4940 P.3    83  U83         0.2141
   1742  OP1      161.8030   16.6980  137.7700 O.3    83  U83        -0.4373
   1743  OP2      163.7620   18.3550  137.4970 O.2    83  U83        -0.5172
   1744  O5'      161.7440   18.5870  136.0790 O.3    83  U83        -0.3114
   1745  C5'      160.3530   18.7030  135.8070 C.3    83  U83         0.1812
   1746  C4'      160.0990   19.4880  134.5370 C.3    83  U83         0.1773
   1747  O4'      160.5870   20.8460  134.6780 O.3    83  U83        -0.3307
   1748  C3'      160.7810   18.9680  133.2770 C.3    83  U83         0.1860
   1749  O3'      160.0410   17.9080  132.6880 O.3    83  U83        -0.3112
   1750  C2'      160.8900   20.2170  132.3940 C.3    83  U83         0.2309
   1751  O2'      159.6970   20.4320  131.6530 O.3    83  U83        -0.2156
   1752  C1'      161.0330   21.3400  133.4320 C.3    83  U83         0.2420
   1753   N.1     162.4240   21.8260  133.5810 N.ar   83  U83        -0.2534
   1754   C.2     162.9100   22.7310  132.6620 C.ar   83  U83         0.3546
   1755   O.2     162.2300   23.1240  131.7320 O.2    83  U83        -0.2443
   1756   N.3     164.2080   23.1540  132.8690 N.ar   83  U83        -0.1530
   1757   C4      165.0510   22.7570  133.9020 C.ar   83  U83         0.2846
   1758   O4      166.2050   23.1890  133.9990 O.2    83  U83        -0.2650
   1759   C5      164.4670   21.8180  134.8090 C.ar   83  U83         0.0814
   1760   C6      163.2090   21.4040  134.6250 C.ar   83  U83         0.0870
   1761    P.3    160.7150   16.8740  131.6550 P.3    84  C84         0.2141
   1762  OP1      159.6090   16.0300  131.1280 O.2    84  C84        -0.5172
   1763  OP2      161.8920   16.2390  132.3150 O.3    84  C84        -0.4373
   1764  O5'      161.1830   17.7920  130.4370 O.3    84  C84        -0.3114
   1765  C5'      161.2390   17.2850  129.1050 C.3    84  C84         0.1813
   1766  C4'      160.7550   18.3130  128.1110 C.3    84  C84         0.1801
   1767  O4'      161.1650   19.6260  128.5750 O.3    84  C84        -0.3306
   1768  C3'      161.2890   18.1640  126.6890 C.3    84  C84         0.2161
   1769  O3'      160.2870   18.5410  125.7380 O.3    84  C84        -0.2175
   1770  C2'      162.4540   19.1560  126.6440 C.3    84  C84         0.2338
   1771  O2'      162.6930   19.6940  125.3580 O.3    84  C84        -0.2155
   1772  C1'      162.0160   20.2460  127.6290 C.3    84  C84         0.2421
   1773   N.1     163.1370   20.8350  128.3910 N.ar   84  C84        -0.2535
   1774   C.2     163.7890   22.0130  127.9840 C.ar   84  C84         0.3532
   1775   O.2     163.4200   22.5780  126.9470 O.2    84  C84        -0.2443
   1776   N.3     164.8250   22.4990  128.7290 N.ar   84  C84        -0.1739
   1777   C4      165.2140   21.8730  129.8560 C.ar   84  C84         0.1759
   1778   N.4     166.2260   22.3810  130.5760 N.pl3  84  C84        -0.1070
   1779   C5      164.5640   20.6850  130.3030 C.ar   84  C84         0.0566
   1780   C6      163.5560   20.2180  129.5460 C.ar   84  C84         0.0850
@<TRIPOS>BOND
     1    11    10    1
     2     6     5    1
     3     6     7    1
     4     6     8    1
     5     5     4    1
     6     7    12    1
     7  1771  1770    1
     8     9     8    1
     9     9    24    1
    10  1769  1768    1
    11    25    24    2
    12    12    10    1
    13    12    13    1
    14     8    10    1
    15     2     1    1
    16     4     1    1
    17    24    27    1
    18    24    26    1
    19  1770  1768    1
    20  1770  1772    1
    21  1768  1766    1
    22    28    27    1
    23    28    29    1
    24     1     3    1
    25  1775  1774    2
    26    13    14   ar
    27    13    23   ar
    28    29    30    1
    29    29    31    1
    30  1772  1773    1
    31  1772  1767    1
    32    14    15   ar
    33    30    35    1
    34  1774  1773   ar
    35  1774  1776   ar
    36    22    23   ar
    37    22    20   ar
    38  1766  1767    1
    39  1766  1765    1
    40    23    16   ar
    41  1773  1780   ar
    42  1776  1777   ar
    43    32    31    1
    44    32    44    1
    45    15    16   ar
    46    31    33    1
    47    20    21    1
    48    20    19   ar
    49  1765  1764    1
    50    35    33    1
    51    35    36    1
    52    16    17   ar
    53  1611  1610    2
    54  1591  1590    2
    55    34    33    1
    56  1780  1779   ar
    57    43    36   ar
    58    43    42   ar
    59    45    44    2
    60  1777  1779   ar
    61  1777  1778    1
    62    46    44    1
    63    36    37   ar
    64    44    47    1
    65  1571  1570    2
    66    19    17   ar
    67    42    40   ar
    68    17    18    2
    69  1764  1761    1
    70  1612  1610    1
    71  1610  1598    1
    72  1610  1613    1
    73  1590  1592    1
    74  1590  1578    1
    75  1590  1593    1
    76    37    38    2
    77    37    39   ar
    78  1762  1761    2
    79  1578  1577    1
    80  1548  1547    2
    81  1598  1597    1
    82  1613  1614    1
    83    47    48    1
    84    40    39   ar
    85    40    41    2
    86  1570  1555    1
    87  1570  1572    1
    88  1570  1573    1
    89  1593  1594    1
    90  1751  1750    1
    91  1761  1763    1
    92  1761  1749    1
    93  1594  1595    1
    94  1755  1754    2
    95  1614  1615    1
    96    48    49    1
    97   247   246    1
    98  1635  1633    2
    99  1555  1554    1
   100  1574  1573    1
   101  1574  1575    1
   102  1634  1633    1
   103   242   241    1
   104   242   243    1
   105   242   244    1
   106  1750  1748    1
   107  1750  1752    1
   108  1597  1595    1
   109  1597  1599    1
   110  1577  1575    1
   111  1577  1579    1
   112  1617  1615    1
   113  1617  1619    1
   114  1617  1618    1
   115   245   244    1
   116   245   257    1
   117  1575  1576    1
   118   241   240    1
   119   225   224    1
   120  1595  1596    1
   121  1633  1618    1
   122  1633  1636    1
   123  1551  1550    1
   124  1551  1552    1
   125  1754  1756   ar
   126  1754  1753   ar
   127   258   257    2
   128  1749  1748    1
   129  1547  1535    1
   130  1547  1550    1
   131  1547  1549    1
   132  1615  1616    1
   133  1756  1757   ar
   134   243   248    1
   135  1619  1620    1
   136  1619  1621    1
   137   261   262    1
   138   261   260    1
   139   246   244    1
   140   246   248    1
   141  1535  1534    1
   142  1554  1552    1
   143  1554  1556    1
   144  1580  1579    1
   145    49    50    1
   146    49    51    1
   147  1552  1553    1
   148  1748  1746    1
   149    57    58   ar
   150    57    56   ar
   151   248   249    1
   152    50    55    1
   153  1752  1753    1
   154  1752  1747    1
   155   257   260    1
   156   257   259    1
   157   262   263    1
   158   262   264    1
   159    58    59   ar
   160   238   237    2
   161  1753  1760   ar
   162  1579  1581    1
   163  1528  1527    2
   164  1557  1556    1
   165  1599  1600    1
   166  1599  1601    1
   167  1623  1624   ar
   168  1623  1622   ar
   169  1757  1758    2
   170  1757  1759   ar
   171   223   237    1
   172   223   222    1
   173   240   237    1
   174  1636  1637    1
   175  1616  1621    1
   176  1576  1581    1
   177  1596  1601    1
   178   224   226    1
   179   224   222    1
   180   263   268    1
   181    51    53    1
   182    51    52    1
   183  1621  1622    1
   184  1556  1558    1
   185    56    55    1
   186    56    65   ar
   187   265   264    1
   188   265   279    1
   189    53    55    1
   190    53    54    1
   191    68    66    2
   192  1537  1536    1
   193  1737  1738   ar
   194  1737  1735   ar
   195   237   239    1
   196  1624  1625   ar
   197   220   222    1
   198   220   221    1
   199   220   219    1
   200   267   266    1
   201  1534  1532    1
   202  1534  1536    1
   203  1746  1747    1
   204  1746  1745    1
   205  1736  1735    1
   206   226   221    1
   207   226   227    1
   208  1622  1632   ar
   209  1553  1558    1
   210  1531  1532    1
   211  1531  1530    1
   212  1760  1759   ar
   213  1581  1582    1
   214   251   250    2
   215  1532  1533    1
   216   264   266    1
   217  1601  1602    1
   218    59    65   ar
   219    59    60   ar
   220    83    82    1
   221   249   250   ar
   222   249   256   ar
   223  1609  1602   ar
   224  1609  1608   ar
   225  1637  1638    1
   226  1738  1739   ar
   227   280   279    2
   228  1735  1734   ar
   229  1527  1530    1
   230  1527  1515    1
   231  1527  1529    1
   232   268   266    1
   233   268   269    1
   234    61    60    1
   235    65    64   ar
   236  1536  1538    1
   237   235   234   ar
   238   235   236   ar
   239  1558  1559    1
   240   279   281    1
   241   279   282    1
   242  1602  1603   ar
   243   250   252   ar
   244  1608  1606   ar
   245    52    66    1
   246   219   218    1
   247    60    62   ar
   248   212   213   ar
   249   212   211   ar
   250    66    67    1
   251    66    69    1
   252    82    84   ar
   253    82    81   ar
   254   256   255   ar
   255  1656  1655    2
   256  1582  1589   ar
   257  1582  1583   ar
   258  1625  1632   ar
   259  1625  1626   ar
   260    84    85   ar
   261  1589  1588   ar
   262  1515  1514    1
   263  1632  1631   ar
   264  1745  1744    1
   265   227   236   ar
   266   227   228   ar
   267   234   233   ar
   268  1657  1655    1
   269  1739  1740   ar
   270  1533  1538    1
   271  1517  1516    1
   272  1744  1741    1
   273  1638  1639    1
   274  1638  1640    1
   275   213   214   ar
   276   236   230   ar
   277   211   209   ar
   278  1734  1740   ar
   279  1734  1733   ar
   280    81    79   ar
   281    64    63   ar
   282  1559  1560   ar
   283  1559  1569   ar
   284   269   270   ar
   285   269   278   ar
   286   203   202    1
   287  1538  1539    1
   288  1655  1641    1
   289  1655  1658    1
   290  1603  1604    2
   291  1603  1605   ar
   292  1560  1561   ar
   293  1606  1605   ar
   294  1606  1607    1
   295    85    78   ar
   296  1641  1640    1
   297  1740  1731   ar
   298  1584  1583    2
   299    70    69    1
   300    70    71    1
   301  1583  1585   ar
   302    62    63   ar
   303   270   271   ar
   304  1588  1586   ar
   305   252   253   ar
   306   218   215    1
   307   103   102    1
   308   282   283    1
   309  1626  1627    2
   310  1626  1628   ar
   311  1631  1629   ar
   312   168   167    1
   313   255   253   ar
   314  1639  1644    1
   315  1640  1642    1
   316  1516  1514    1
   317  1516  1518    1
   318  1716  1715    2
   319  1514  1512    1
   320   169   167   ar
   321   169   170   ar
   322   228   229   ar
   323    79    78   ar
   324    79    80    2
   325  1733  1732   ar
   326   233   231   ar
   327    78    77    1
   328   202   204    1
   329   202   200    1
   330    72    71    1
   331    72    77    1
   332  1569  1568   ar
   333  1569  1562   ar
   334   214   208   ar
   335   214   205   ar
   336   278   277   ar
   337   278   272   ar
   338  1741  1743    2
   339  1741  1742    1
   340  1741  1727    1
   341   209   210    1
   342   209   208   ar
   343   230   231   ar
   344   230   229   ar
   345   253   254    2
   346  1561  1562   ar
   347  1539  1546   ar
   348  1539  1540   ar
   349  1585  1586   ar
   350  1586  1587    1
   351   283   284    1
   352   277   276   ar
   353   216   215    2
   354  1568  1566   ar
   355   167   166   ar
   356  1541  1540    2
   357    71    73    1
   358  1731  1732   ar
   359  1731  1730    1
   360   102   101   ar
   361   102   104   ar
   362  1512  1511    1
   363  1512  1513    1
   364   100   101   ar
   365   100    99   ar
   366   271   272   ar
   367   170   171   ar
   368  1728  1729    1
   369  1728  1730    1
   370  1728  1726    1
   371  1628  1629   ar
   372  1629  1630    1
   373  1658  1659    1
   374   215   201    1
   375   215   217    1
   376   204   205    1
   377   204   199    1
   378   201   200    1
   379   231   232    1
   380   284   285    1
   381   284   286    1
   382  1546  1545   ar
   383  1715  1714   ar
   384  1715  1717   ar
   385    77    75    1
   386   880   879    1
   387  1562  1563   ar
   388  1540  1542   ar
   389   208   207   ar
   390   285   290    1
   391  1646  1645   ar
   392  1646  1647   ar
   393   101   107   ar
   394  1644  1642    1
   395  1644  1645    1
   396   205   206   ar
   397  1518  1513    1
   398  1518  1519    1
   399  1642  1643    1
   400   272   273   ar
   401   104   105   ar
   402   200   198    1
   403  1511  1510    1
   404  1730  1725    1
   405  1727  1726    1
   406  1714  1712   ar
   407  1726  1724    1
   408    99    98   ar
   409  1659  1660    1
   410  1566  1567    1
   411  1566  1565   ar
   412  1521  1520    2
   413    75    73    1
   414    75    76    1
   415   276   275   ar
   416  1645  1654   ar
   417  1695  1696   ar
   418  1695  1693   ar
   419  1679  1677    2
   420  1647  1648   ar
   421   927   926    1
   422   125   124    1
   423    73    74    1
   424  1717  1718   ar
   425  1508  1507    2
   426   166   172   ar
   427   166   165   ar
   428   289   288    1
   429   171   172   ar
   430  1545  1543   ar
   431   199   198    1
   432   148   147    1
   433   879   881   ar
   434   879   878   ar
   435  1542  1543   ar
   436  1510  1507    1
   437   287   286    1
   438   287   299    1
   439   290   288    1
   440   290   291    1
   441   198   197    1
   442  1694  1693    1
   443   107    98   ar
   444   107   106   ar
   445  1519  1520   ar
   446  1519  1526   ar
   447  1696  1697   ar
   448  1563  1565   ar
   449  1563  1564    2
   450   286   288    1
   451   881   882   ar
   452   105   106   ar
   453   940   939    1
   454  1520  1522   ar
   455   146   147   ar
   456   146   144   ar
   457   207   206   ar
   458  1669  1668   ar
   459  1669  1670   ar
   460    98    97    1
   461   273   275   ar
   462   273   274    1
   463   145   144    2
   464   172   163   ar
   465  1693  1692   ar
   466  1668  1667   ar
   467  1712  1713    2
   468  1712  1711   ar
   469   300   299    2
   470  1725  1724    1
   471   124   123   ar
   472   124   126   ar
   473  1543  1544    2
   474   123   121   ar
   475   926   928   ar
   476   926   925   ar
   477   917   916    1
   478   165   164   ar
   479  1724  1723    1
   480  1507  1509    1
   481  1507  1492    1
   482   298   291   ar
   483   298   297   ar
   484   147   149   ar
   485   928   929   ar
   486  1526  1525   ar
   487  1677  1678    1
   488  1677  1663    1
   489  1677  1680    1
   490    74    86    1
   491  1660  1662    1
   492  1660  1661    1
   493   936   935    1
   494   936   941    1
   495   301   299    1
   496   299   302    1
   497  1654  1648   ar
   498  1654  1653   ar
   499  1718  1711   ar
   500   144   143   ar
   501  1648  1649   ar
   502  1722  1723    1
   503  1722  1719    1
   504   878   877   ar
   505   878   884   ar
   506  1663  1662    1
   507  1662  1664    1
   508   291   292   ar
   509   859   860   ar
   510   859   857   ar
   511   935   934    1
   512   935   937    1
   513  1721  1719    2
   514   941   939    1
   515   941   942    1
   516  1522  1523   ar
   517   877   876   ar
   518   882   883   ar
   519  1697  1698   ar
   520  1701  1699    2
   521  1672  1671    1
   522    97    92    1
   523    97    95    1
   524  1711  1710    1
   525   860   861   ar
   526    88    86    2
   527   126   127   ar
   528   925   923   ar
   529   939   937    1
   530    92    91    1
   531   121   122    2
   532   121   120   ar
   533  1661  1666    1
   534   197   196    1
   535   944   943    2
   536   858   857    1
   537  1670  1671   ar
   538  1670  1676   ar
   539   297   295   ar
   540   934   933    1
   541  1692  1698   ar
   542  1692  1691   ar
   543   918   916    1
   544   918   919    1
   545   918   913    1
   546  1525  1523   ar
   547  1492  1491    1
   548  1667  1666    1
   549  1667  1676   ar
   550   163   164   ar
   551   163   162    1
   552   916   914    1
   553   929   919   ar
   554   929   922   ar
   555    89    86    1
   556    89    90    1
   557   684   683    2
   558   938   937    1
   559   938   950    1
   560  1523  1524    1
   561   857   856   ar
   562  1494  1493    1
   563  1719  1720    1
   564  1719  1707    1
   565    86    87    1
   566  1653  1652   ar
   567   149   150   ar
   568  1698  1689   ar
   569  1681  1680    1
   570  1681  1682    1
   571  1504  1503    1
   572  1671  1673   ar
   573   884   883   ar
   574   884   875   ar
   575   196   193    1
   576   942   943   ar
   577   942   949   ar
   578  1649  1650    1
   579  1649  1651   ar
   580   127   120   ar
   581   919   920   ar
   582   954   955    1
   583   954   953    1
   584   143   150   ar
   585   143   142   ar
   586   120   119    1
   587  1666  1664    1
   588   292   293    2
   589   292   294   ar
   590   943   945   ar
   591   876   875   ar
   592  1664  1665    1
   593   861   862   ar
   594   302   303    1
   595   923   922   ar
   596   923   924    2
   597   956   955    1
   598   956   961    1
   599  1676  1675   ar
   600   955   957    1
   601   913   912    1
   602   303   304    1
   603  1708  1710    1
   604  1708  1706    1
   605  1708  1709    1
   606  1493  1491    1
   607  1493  1495    1
   608   194   193    2
   609  1699  1702    1
   610  1699  1700    1
   611  1699  1685    1
   612  1702  1703    1
   613   922   921   ar
   614    90    91    1
   615  1710  1705    1
   616  1706  1707    1
   617  1706  1704    1
   618   150   140   ar
   619    95    93    1
   620    95    96    1
   621    91    93    1
   622  1691  1690   ar
   623  1491  1489    1
   624   295   294   ar
   625   295   296    1
   626   162   160    1
   627   162   157    1
   628   951   950    2
   629  1503  1505   ar
   630  1503  1502   ar
   631   875   874    1
   632   856   862   ar
   633   856   855   ar
   634   949   948   ar
   635   933   930    1
   636   914   915    1
   637   914   912    1
   638  1652  1651   ar
   639   671   683    1
   640   671   670    1
   641   915   930    1
   642  1505  1506   ar
   643   862   853   ar
   644   912   911    1
   645   960   959    1
   646   950   953    1
   647   950   952    1
   648   193   195    1
   649   193   181    1
   650   119   114    1
   651   119   117    1
   652   683   686    1
   653   683   685    1
   654   142   141   ar
   655   961   959    1
   656   961   962    1
   657   920   921   ar
   658   161   160    1
   659   945   946   ar
   660   687   686    1
   661   687   688    1
   662  1682  1684    1
   663  1682  1683    1
   664  1689  1690   ar
   665  1689  1688    1
   666    93    94    1
   667  1684  1685    1
   668  1684  1686    1
   669  1673  1674   ar
   670  1705  1704    1
   671  1502  1500   ar
   672  1683  1688    1
   673   114   113    1
   674   664   663    2
   675   160   158    1
   676   157   156    1
   677  1704  1703    1
   678   305   304    1
   679   305   310    1
   680   304   306    1
   681   667   668    1
   682   667   666    1
   683  1675  1674   ar
   684   957   958    1
   685   957   959    1
   686   707   706    2
   687   931   930    2
   688   673   672    1
   689   958   970    1
   690   930   932    1
   691   668   670    1
   692   668   669    1
   693  1495  1496    1
   694  1495  1490    1
   695   140   141   ar
   696   140   139    1
   697   855   854   ar
   698   183   182    1
   699   948   946   ar
   700  1489  1490    1
   701  1489  1488    1
   702  1506  1496   ar
   703  1506  1499   ar
   704   318   317   ar
   705   318   311   ar
   706   946   947    1
   707   317   315   ar
   708  1688  1686    1
   709   853   854   ar
   710   853   852    1
   711   962   969   ar
   712   962   963   ar
   713   670   672    1
   714   688   690    1
   715   688   689    1
   716   874   869    1
   717   874   872    1
   718   691   706    1
   719   691   690    1
   720   869   868    1
   721   117   118    1
   722   117   115    1
   723   181   180    1
   724  1496  1497   ar
   725  1686  1687    1
   726  1500  1499   ar
   727  1500  1501    2
   728   911   910    1
   729   964   963    2
   730   910   907    1
   731   969   968   ar
   732  1499  1498   ar
   733    94   108    1
   734   852   847    1
   735   852   850    1
   736   706   708    1
   737   706   709    1
   738   666   663    1
   739   963   965   ar
   740   180   182    1
   741   180   178    1
   742   139   134    1
   743   139   137    1
   744   672   674    1
   745  1488  1487    1
   746   851   850    1
   747   134   133    1
   748   663   649    1
   749   663   665    1
   750   182   184    1
   751   690   692    1
   752   306   307    1
   753   306   308    1
   754   310   311    1
   755   310   308    1
   756   113   115    1
   757   113   112    1
   758   311   312   ar
   759   669   674    1
   760   156   158    1
   761   156   155    1
   762   971   970    2
   763   158   159    1
   764   908   907    2
   765   649   648    1
   766   111   112    1
   767   111   108    1
   768   315   316    2
   769   315   314   ar
   770   159   173    1
   771   909   907    1
   772   838   837    1
   773  1487  1484    1
   774   689   694    1
   775   651   650    1
   776   970   972    1
   777   970   973    1
   778   872   873    1
   779   872   870    1
   780  1497  1498   ar
   781   110   108    2
   782   321   319    2
   783   907   893    1
   784   968   966   ar
   785   115   116    1
   786   307   319    1
   787   155   154    1
   788   866   867    1
   789   866   863    1
   790   847   846    1
   791   850   848    1
   792   108   109    1
   793   693   692    1
   794   965   966   ar
   795   674   675    1
   796   868   867    1
   797   868   870    1
   798   849   863    1
   799   849   848    1
   800   974   973    1
   801   974   975    1
   802  1485  1484    2
   803   836   837   ar
   804   836   834   ar
   805   308   309    1
   806   966   967    1
   807   865   863    2
   808   692   694    1
   809   312   314   ar
   810   312   313    2
   811   319   320    1
   812   319   322    1
   813   709   710    1
   814   837   839   ar
   815   336   335    1
   816   178   177    1
   817   178   179    1
   818   133   132    1
   819   133   135    1
   820   137   138    1
   821   137   135    1
   822   710   711    1
   823   184   185    1
   824   184   179    1
   825  1484  1486    1
   826  1484  1469    1
   827   648   650    1
   828   648   646    1
   829   835   834    2
   830  1481  1480    1
   831   650   652    1
   832   863   864    1
   833   870   871    1
   834   694   695    1
   835   976   975    1
   836   976   981    1
   837   848   846    1
   838   333   332   ar
   839   333   334   ar
   840   177   176    1
   841   174   173    2
   842   975   977    1
   843   173   176    1
   844   173   175    1
   845   187   186    2
   846   846   845    1
   847   646   645    1
   848   646   647    1
   849   116   128    1
   850   834   833   ar
   851   136   135    1
   852   136   151    1
   853   893   892    1
   854   154   151    1
   855   132   131    1
   856   871   885    1
   857   185   186   ar
   858   185   192   ar
   859   675   682   ar
   860   675   676   ar
   861   131   128    1
   862   186   188   ar
   863   731   729    2
   864   696   695   ar
   865   696   697   ar
   866   332   331   ar
   867  1480  1479   ar
   868  1480  1482   ar
   869   839   840   ar
   870   335   334   ar
   871   335   337   ar
   872   645   644    1
   873   682   681   ar
   874   892   890    1
   875   892   894    1
   876   695   705   ar
   877  1479  1477   ar
   878   334   340   ar
   879   322   323    1
   880   192   191   ar
   881  1469  1468    1
   882   652   647    1
   883   652   653    1
   884   981   982    1
   885   981   979    1
   886   151   152    2
   887   151   153    1
   888   711   712    1
   889   711   713    1
   890   989   988   ar
   891   989   982   ar
   892   130   128    2
   893   128   129    1
   894   677   676    2
   895   188   189   ar
   896  1482  1483   ar
   897   845   844    1
   898   833   840   ar
   899   833   832   ar
   900   642   641    2
   901   676   678   ar
   902   890   889    1
   903   890   891    1
   904   988   986   ar
   905   889   888    1
   906   982   983   ar
   907   730   729    1
   908   977   978    1
   909   977   979    1
   910   840   830   ar
   911   714   729    1
   912   714   713    1
   913   729   732    1
   914   769   768    2
   915   191   189   ar
   916  1477  1478    2
   917  1477  1476   ar
   918   697   698   ar
   919  1470  1471    1
   920  1470  1468    1
   921  1470  1472    1
   922   895   894    1
   923   189   190    1
   924   644   641    1
   925   337   338   ar
   926   323   324    1
   927  1468  1466    1
   928   812   811    2
   929   712   717    1
   930   713   715    1
   931   770   768   ar
   932   770   771   ar
   933   331   340   ar
   934   331   330    1
   935   894   896    1
   936   978   990    1
   937   992   990    2
   938   885   888    1
   939   885   887    2
   940   885   886    1
   941   681   679   ar
   942   772   771    1
   943   340   339   ar
   944   980   979    1
   945  1483  1476   ar
   946  1483  1473   ar
   947   705   698   ar
   948   705   704   ar
   949   661   662   ar
   950   661   660   ar
   951   653   662   ar
   952   653   654   ar
   953  1476  1475   ar
   954   768   767   ar
   955   983   985   ar
   956   983   984    2
   957   986   985   ar
   958   986   987    2
   959   325   330    1
   960   325   324    1
   961   832   831   ar
   962   641   626    1
   963   641   643    1
   964   844   841    1
   965   477   476    1
   966   771   773   ar
   967  1363  1362    1
   968   678   679   ar
   969   698   699   ar
   970   990   991    1
   971   990   993    1
   972   813   811   ar
   973   813   814   ar
   974   704   702   ar
   975   662   656   ar
   976   719   720   ar
   977   719   718   ar
   978   830   831   ar
   979   830   829    1
   980   811   810   ar
   981   891   896    1
   982  1473  1472    1
   983  1473  1474   ar
   984   828   827    1
   985   827   829    1
   986   827   825    1
   987   338   339   ar
   988   330   328    1
   989   324   326    1
   990   660   659   ar
   991  1377  1375    2
   992  1472  1467    1
   993   679   680    2
   994   732   733    1
   995  1036  1034    2
   996   746   745    2
   997   896   897    1
   998   743   742   ar
   999   743   744   ar
  1000   628   627    1
  1001   654   655   ar
  1002   626   625    1
  1003  1475  1474   ar
  1004   717   715    1
  1005   717   718    1
  1006   457   456    1
  1007  1376  1375    1
  1008  1466  1465    1
  1009  1466  1467    1
  1010  1022  1021    1
  1011   715   716    1
  1012   328   326    1
  1013   328   329    1
  1014   829   824    1
  1015   720   721   ar
  1016   461   460    2
  1017   815   814    1
  1018  1367  1366   ar
  1019  1367  1368   ar
  1020   718   728   ar
  1021   767   774   ar
  1022   767   766   ar
  1023  1366  1365   ar
  1024   843   841    2
  1025   742   741   ar
  1026   814   816   ar
  1027   326   327    1
  1028   481   480    2
  1029   478   473    1
  1030   478   476    1
  1031   478   479    1
  1032   473   472    1
  1033  1464  1465    1
  1034  1464  1461    1
  1035   773   774   ar
  1036   472   471    1
  1037   472   474    1
  1038   754   752    2
  1039   476   474    1
  1040  1362  1364    1
  1041  1362  1360    1
  1042  1375  1361    1
  1043  1375  1378    1
  1044   841   826    1
  1045   841   842    1
  1046   656   655   ar
  1047   656   657   ar
  1048   825   826    1
  1049   825   823    1
  1050   699   701   ar
  1051   699   700    2
  1052   702   701   ar
  1053   702   703    1
  1054   993   994    1
  1055   745   744   ar
  1056   745   747   ar
  1057   744   751   ar
  1058   810   809   ar
  1059   810   817   ar
  1060   627   625    1
  1061   627   629    1
  1062   491   492    1
  1063   491   490    1
  1064   659   657   ar
  1065  1370  1369    1
  1066   492   493    1
  1067   492   494    1
  1068   733   734    1
  1069   444   443   ar
  1070   444   445   ar
  1071   774   764   ar
  1072   497   496    1
  1073  1035  1034    1
  1074  1368  1369   ar
  1075  1368  1374   ar
  1076  1034  1020    1
  1077  1034  1037    1
  1078   493   498    1
  1079   475   474    1
  1080   475   487    1
  1081   897   898   ar
  1082   897   906   ar
  1083   625   623    1
  1084   766   765   ar
  1085  1365  1364    1
  1086  1365  1374   ar
  1087   471   470    1
  1088  1455  1454    2
  1089   456   458    1
  1090   456   454    1
  1091   638   637    1
  1092   458   453    1
  1093   458   459    1
  1094   460   459   ar
  1095   460   462   ar
  1096  1369  1371   ar
  1097  1289  1288    2
  1098  1361  1360    1
  1099   443   441   ar
  1100  1463  1461    2
  1101  1364  1359    1
  1102   809   808   ar
  1103   657   658    1
  1104  1456  1454   ar
  1105  1456  1457   ar
  1106  1021  1019    1
  1107  1021  1023    1
  1108   721   728   ar
  1109   721   722   ar
  1110  1360  1358    1
  1111   480   479   ar
  1112   480   482   ar
  1113  1462  1461    1
  1114   824   823    1
  1115  1374  1373   ar
  1116  1025  1026   ar
  1117  1025  1024   ar
  1118  1461  1446    1
  1119  1458  1457    1
  1120   898   899   ar
  1121  1312  1311    2
  1122  1020  1019    1
  1123   728   727   ar
  1124   445   446   ar
  1125   479   486   ar
  1126  1355  1353    2
  1127   816   817   ar
  1128  1026  1027   ar
  1129  1454  1453   ar
  1130   994   995    1
  1131   498   496    1
  1132   498   499    1
  1133  1378  1379    1
  1134  1389  1388   ar
  1135  1389  1390   ar
  1136   817   807   ar
  1137   741   751   ar
  1138   741   740    1
  1139   488   487    2
  1140  1354  1353    1
  1141   495   494    1
  1142   495   507    1
  1143  1334  1333    2
  1144   327   341    1
  1145   905   906   ar
  1146   905   904   ar
  1147  1392  1391    2
  1148   623   622    1
  1149   623   624    1
  1150   453   452    1
  1151   459   466   ar
  1152   906   900   ar
  1153  1457  1459   ar
  1154   823   822    1
  1155   752   753    1
  1156   752   755    1
  1157   752   737    1
  1158   462   463   ar
  1159   639   637   ar
  1160   639   640   ar
  1161   496   494    1
  1162   747   748   ar
  1163   751   750   ar
  1164   490   487    1
  1165  1019  1017    1
  1166  1371  1372   ar
  1167  1024  1023    1
  1168  1024  1033   ar
  1169   637   636   ar
  1170   734   735    1
  1171   734   736    1
  1172   735   740    1
  1173   765   764   ar
  1174   764   763    1
  1175  1023  1018    1
  1176   487   489    1
  1177  1037  1038    1
  1178   629   624    1
  1179   629   630    1
  1180  1388  1387   ar
  1181   736   737    1
  1182   736   738    1
  1183  1335  1333    1
  1184   455   454    1
  1185   455   467    1
  1186   792   791    1
  1187  1379  1380    1
  1188   452   454    1
  1189   452   451    1
  1190  1373  1372   ar
  1191   762   761    1
  1192  1353  1356    1
  1193  1353  1341    1
  1194  1027  1033   ar
  1195  1027  1028   ar
  1196  1004  1003   ar
  1197  1004  1005   ar
  1198   342   341    2
  1199   470   467    1
  1200   508   507    2
  1201   482   483   ar
  1202  1356  1357    1
  1203  1003  1002   ar
  1204  1453  1460   ar
  1205  1453  1452   ar
  1206  1313  1311    1
  1207  1029  1028    1
  1208   755   756    1
  1209  1033  1032   ar
  1210   722   723    2
  1211   722   724   ar
  1212   808   807   ar
  1213  1288  1290    1
  1214  1288  1291    1
  1215  1288  1274    1
  1216   441   442    1
  1217   441   440   ar
  1218   761   763    1
  1219   761   759    1
  1220   899   900   ar
  1221   727   725   ar
  1222  1390  1391   ar
  1223  1390  1397   ar
  1224   486   485   ar
  1225   622   621    1
  1226  1391  1393   ar
  1227   740   738    1
  1228   343   341    1
  1229  1311  1296    1
  1230  1311  1314    1
  1231  1359  1358    1
  1232  1038  1039    1
  1233   341   344    1
  1234  1333  1336    1
  1235  1333  1319    1
  1236  1459  1460   ar
  1237   435   434    1
  1238  1028  1030   ar
  1239   821   822    1
  1240   821   818    1
  1241   446   440   ar
  1242   446   437   ar
  1243  1358  1357    1
  1244   501   500    2
  1245   807   806    1
  1246   904   903   ar
  1247   468   467    2
  1248  1446  1445    1
  1249   900   901   ar
  1250  1007  1006    1
  1251   499   500   ar
  1252   499   506   ar
  1253   640   630   ar
  1254   640   633   ar
  1255   507   510    1
  1256   507   509    1
  1257  1460  1450   ar
  1258   467   469    1
  1259   630   631   ar
  1260   995   997    1
  1261   995   996    1
  1262  1047  1048   ar
  1263  1047  1046   ar
  1264  1048  1049   ar
  1265  1452  1451   ar
  1266   738   739    1
  1267  1040  1039    1
  1268  1040  1045    1
  1269   466   465   ar
  1270   636   634   ar
  1271   748   750   ar
  1272   748   749    1
  1273  1292  1291    1
  1274  1292  1293    1
  1275   763   758    1
  1276   463   464    2
  1277   463   465   ar
  1278  1005  1006   ar
  1279  1005  1011   ar
  1280  1032  1031   ar
  1281   820   818    2
  1282  1296  1295    1
  1283   997   999    1
  1284   997   998    1
  1285   999  1001    1
  1286   999  1000    1
  1287  1445  1447    1
  1288  1445  1443    1
  1289  1387  1397   ar
  1290  1387  1386    1
  1291   996  1001    1
  1292  1030  1031   ar
  1293   791   793   ar
  1294   791   790   ar
  1295   500   502   ar
  1296   440   439   ar
  1297  1274  1273    1
  1298  1002  1011   ar
  1299  1002  1001    1
  1300  1018  1017    1
  1301  1381  1380    1
  1302  1381  1386    1
  1303  1006  1008   ar
  1304  1017  1016    1
  1305   777   775    2
  1306   451   450    1
  1307   621   618    1
  1308   506   505   ar
  1309   793   794   ar
  1310   483   485   ar
  1311   483   484    1
  1312  1380  1382    1
  1313  1336  1337    1
  1314   436   434    1
  1315   436   437    1
  1316   436   431    1
  1317   510   511    1
  1318   434   432    1
  1319  1039  1041    1
  1320  1447  1448    1
  1321  1447  1449    1
  1322   724   725   ar
  1323  1397  1396   ar
  1324   725   726    1
  1325   759   757    1
  1326   759   760    1
  1327  1341  1340    1
  1328  1319  1318    1
  1329   437   438   ar
  1330  1314  1315    1
  1331  1013  1012    2
  1332  1451  1450   ar
  1333   758   757    1
  1334  1393  1394   ar
  1335  1450  1449    1
  1336  1046  1045    1
  1337  1046  1056   ar
  1338  1011  1010   ar
  1339   615   614    1
  1340   903   901   ar
  1341   818   819    1
  1342   818   803    1
  1343   901   902    1
  1344   804   806    1
  1345   804   802    1
  1346   804   805    1
  1347  1049  1050   ar
  1348  1049  1056   ar
  1349   756   757    1
  1350  1051  1050    2
  1351   633   634   ar
  1352   633   632   ar
  1353  1337  1338    1
  1354  1315  1316    1
  1355   806   801    1
  1356  1015  1016    1
  1357  1015  1012    1
  1358  1045  1043    1
  1359   634   635    2
  1360  1386  1384    1
  1361   344   345    1
  1362   619   618    2
  1363   631   632   ar
  1364  1295  1293    1
  1365  1295  1297    1
  1366   419   418    2
  1367  1293  1294    1
  1368   513   512    1
  1369   513   518    1
  1370  1384  1382    1
  1371  1384  1385    1
  1372  1050  1052   ar
  1373   420   418   ar
  1374   420   421   ar
  1375  1267  1266    2
  1376  1008  1009   ar
  1377   802   803    1
  1378   802   800    1
  1379  1340  1338    1
  1380  1340  1342    1
  1381   790   788   ar
  1382   511   512    1
  1383  1382  1383    1
  1384  1056  1055   ar
  1385   450   447    1
  1386   502   503   ar
  1387   422   421    1
  1388   345   346    1
  1389  1442  1443    1
  1390  1442  1441    1
  1391  1270  1271    1
  1392  1270  1269    1
  1393   512   514    1
  1394   998  1012    1
  1395  1449  1444    1
  1396   505   503   ar
  1397   431   430    1
  1398  1318  1316    1
  1399  1318  1320    1
  1400  1443  1444    1
  1401   618   620    1
  1402   618   603    1
  1403  1012  1014    1
  1404   760   775    1
  1405   439   438   ar
  1406  1273  1271    1
  1407  1273  1275    1
  1408   794   787   ar
  1409  1010  1009   ar
  1410   775   776    1
  1411   775   778    1
  1412  1396  1394   ar
  1413  1394  1395    1
  1414  1440  1438    2
  1415   418   417   ar
  1416  1041  1043    1
  1417  1041  1042    1
  1418   614   616   ar
  1419   614   613   ar
  1420  1338  1339    1
  1421  1435  1434    1
  1422  1316  1317    1
  1423   432   433    1
  1424   432   430    1
  1425   801   800    1
  1426  1271  1272    1
  1427   421   423   ar
  1428   503   504    1
  1429   355   354   ar
  1430   355   356   ar
  1431   402   401    1
  1432   354   353   ar
  1433   605   604    1
  1434   433   447    1
  1435  1351  1352   ar
  1436  1351  1349   ar
  1437  1052  1053   ar
  1438  1055  1053   ar
  1439   518   519    1
  1440   518   516    1
  1441   430   429    1
  1442  1352  1345   ar
  1443  1043  1044    1
  1444  1276  1275    1
  1445   616   617   ar
  1446   800   799    1
  1447  1294  1299    1
  1448   517   516    1
  1449  1269  1266    1
  1450   603   602    1
  1451   613   611   ar
  1452  1342  1343    1
  1453  1342  1344    1
  1454  1297  1298    1
  1455  1297  1299    1
  1456   788   787   ar
  1457   788   789    2
  1458   347   346    1
  1459   347   352    1
  1460  1266  1268    1
  1461  1266  1251    1
  1462  1053  1054    1
  1463  1399  1398    2
  1464  1441  1438    1
  1465   447   448    2
  1466   447   449    1
  1467  1275  1277    1
  1468  1420  1418    2
  1469   799   798    1
  1470   604   602    1
  1471   604   606    1
  1472   778   779    1
  1473  1383  1398    1
  1474   787   786    1
  1475   346   348    1
  1476  1434  1436   ar
  1477  1434  1433   ar
  1478  1350  1349    1
  1479  1042  1057    1
  1480  1438  1439    1
  1481  1438  1426    1
  1482  1349  1348   ar
  1483   520   519   ar
  1484   520   521   ar
  1485   514   516    1
  1486   514   515    1
  1487   380   379    1
  1488  1320  1321    1
  1489  1320  1322    1
  1490  1339  1344    1
  1491  1436  1437   ar
  1492   519   529   ar
  1493   400   401   ar
  1494   400   398   ar
  1495   590   589    1
  1496  1059  1057    2
  1497   515   530    1
  1498  1345  1344    1
  1499  1345  1346   ar
  1500   417   416    1
  1501   417   424   ar
  1502   401   403   ar
  1503  1317  1322    1
  1504   797   795    2
  1505   602   600    1
  1506   358   357    1
  1507  1324  1325   ar
  1508  1324  1323   ar
  1509  1433  1431   ar
  1510  1299  1300    1
  1511   356   357   ar
  1512   356   362   ar
  1513   353   352    1
  1514   353   362   ar
  1515   423   424   ar
  1516  1272  1277    1
  1517   617   610   ar
  1518   617   607   ar
  1519   532   530    2
  1520   365   363    2
  1521  1398  1401    1
  1522  1398  1400    1
  1523  1251  1250    1
  1524  1325  1326   ar
  1525  1074  1073    2
  1526   567   566    2
  1527  1419  1418    1
  1528  1348  1346   ar
  1529   611   612    2
  1530   611   610   ar
  1531   521   522   ar
  1532   415   414    1
  1533   352   350    1
  1534   429   428    1
  1535  1301  1300   ar
  1536  1301  1302   ar
  1537   416   414    1
  1538   416   411    1
  1539  1322  1323    1
  1540  1071  1070   ar
  1541  1071  1072   ar
  1542  1418  1421    1
  1543  1418  1406    1
  1544   348   349    1
  1545   348   350    1
  1546  1057  1058    1
  1547  1057  1060    1
  1548  1415  1414    1
  1549  1346  1347    2
  1550  1437  1430   ar
  1551  1323  1332   ar
  1552  1277  1278    1
  1553   414   412    1
  1554   606   607    1
  1555   606   601    1
  1556   357   359   ar
  1557  1300  1310   ar
  1558   377   378   ar
  1559   377   376   ar
  1560   798   795    1
  1561   779   780    1
  1562   589   591   ar
  1563   589   588   ar
  1564   529   522   ar
  1565   529   528   ar
  1566   786   781    1
  1567   786   784    1
  1568  1401  1402    1
  1569   530   531    1
  1570   530   533    1
  1571   399   398    2
  1572  1421  1422    1
  1573   591   592   ar
  1574   362   361   ar
  1575   781   780    1
  1576   379   378   ar
  1577   379   381   ar
  1578  1431  1430   ar
  1579  1431  1432    2
  1580   610   609   ar
  1581   398   397   ar
  1582   607   608   ar
  1583  1426  1425    1
  1584  1070  1069   ar
  1585   782   784    1
  1586   782   780    1
  1587   782   783    1
  1588  1416  1414   ar
  1589  1416  1417   ar
  1590  1073  1072   ar
  1591  1073  1075   ar
  1592   428   425    1
  1593  1097  1096    2
  1594  1072  1079   ar
  1595  1326  1332   ar
  1596  1326  1327   ar
  1597  1425  1427    1
  1598  1425  1423    1
  1599   403   404   ar
  1600  1430  1429    1
  1601   522   523   ar
  1602   795   783    1
  1603   795   796    1
  1604   349   363    1
  1605  1414  1413   ar
  1606  1302  1303   ar
  1607   784   785    1
  1608   528   526   ar
  1609  1332  1331   ar
  1610   600   601    1
  1611   600   599    1
  1612   378   384   ar
  1613  1253  1252    1
  1614  1427  1429    1
  1615  1427  1428    1
  1616  1278  1279   ar
  1617  1278  1287   ar
  1618   350   351    1
  1619   363   364    1
  1620   363   366    1
  1621   566   568   ar
  1622   566   565   ar
  1623  1060  1061    1
  1624  1310  1303   ar
  1625  1310  1309   ar
  1626  1250  1252    1
  1627  1250  1248    1
  1628  1417  1410   ar
  1629  1279  1280   ar
  1630  1328  1327    1
  1631   376   375   ar
  1632   588   587   ar
  1633   588   594   ar
  1634   381   382   ar
  1635  1327  1329   ar
  1636   411   410    1
  1637  1075  1076   ar
  1638  1096  1098   ar
  1639  1096  1095   ar
  1640  1069  1079   ar
  1641  1069  1068    1
  1642  1406  1405    1
  1643  1402  1403    1
  1644   592   593   ar
  1645  1303  1304   ar
  1646   587   586   ar
  1647  1079  1078   ar
  1648  1063  1068    1
  1649  1063  1062    1
  1650   359   360   ar
  1651  1098  1099   ar
  1652   608   609   ar
  1653  1405  1403    1
  1654  1405  1407    1
  1655   568   569   ar
  1656  1331  1330   ar
  1657  1413  1411   ar
  1658   412   413    1
  1659   412   410    1
  1660  1252  1254    1
  1661  1309  1307   ar
  1662  1429  1424    1
  1663   533   534    1
  1664   397   404   ar
  1665   397   396    1
  1666   361   360   ar
  1667  1422  1423    1
  1668  1287  1286   ar
  1669  1287  1281   ar
  1670   523   524    2
  1671   523   525   ar
  1672  1061  1062    1
  1673  1286  1285   ar
  1674   526   525   ar
  1675   526   527    1
  1676  1423  1424    1
  1677   564   565   ar
  1678   564   563   ar
  1679   599   598    1
  1680  1248  1247    1
  1681  1248  1249    1
  1682   565   572   ar
  1683  1280  1281   ar
  1684  1329  1330   ar
  1685  1068  1066    1
  1686  1410  1411   ar
  1687  1410  1409    1
  1688   366   367    1
  1689   425   413    1
  1690   425   427    2
  1691   425   426    1
  1692  1076  1078   ar
  1693  1076  1077    1
  1694  1095  1094   ar
  1695  1095  1102   ar
  1696   594   593   ar
  1697   594   585   ar
  1698  1247  1246    1
  1699  1403  1404    1
  1700   384   375   ar
  1701   384   383   ar
  1702  1100  1099    1
  1703  1094  1093   ar
  1704  1099  1101   ar
  1705  1411  1412    2
  1706   410   409    1
  1707  1281  1282   ar
  1708  1407  1409    1
  1709  1407  1408    1
  1710  1304  1305    2
  1711  1304  1306   ar
  1712   375   374    1
  1713  1062  1064    1
  1714   534   535    1
  1715  1307  1306   ar
  1716  1307  1308    1
  1717   552   550    2
  1718   586   585   ar
  1719   382   383   ar
  1720  1285  1284   ar
  1721  1404  1409    1
  1722   548   549   ar
  1723   548   546   ar
  1724   569   570    1
  1725   569   571   ar
  1726  1200  1199    1
  1727  1102  1101   ar
  1728  1102  1092   ar
  1729   396   394    1
  1730   396   391    1
  1731   585   584    1
  1732   563   562   ar
  1733  1254  1249    1
  1734  1254  1255    1
  1735  1093  1092   ar
  1736   547   546    1
  1737  1282  1284   ar
  1738  1282  1283    1
  1739   598   595    1
  1740  1120  1119    2
  1741  1201  1199   ar
  1742  1201  1202   ar
  1743   394   395    1
  1744   394   392    1
  1745   572   571   ar
  1746   572   562   ar
  1747   549   542   ar
  1748  1233  1232    1
  1749   367   368    1
  1750  1064  1066    1
  1751  1064  1065    1
  1752  1246  1243    1
  1753   408   409    1
  1754   408   405    1
  1755   369   374    1
  1756   369   368    1
  1757  1092  1091    1
  1758  1066  1067    1
  1759  1237  1236    2
  1760   546   545   ar
  1761  1244  1243    2
  1762  1199  1198   ar
  1763   374   372    1
  1764  1264  1262   ar
  1765  1264  1265   ar
  1766  1263  1262    1
  1767  1118  1119   ar
  1768  1118  1116   ar
  1769  1119  1121   ar
  1770   562   561    1
  1771  1255  1265   ar
  1772  1255  1256   ar
  1773   582   584    1
  1774   582   583    1
  1775   582   580    1
  1776   535   536    1
  1777   535   537    1
  1778   550   551    1
  1779   550   553    1
  1780   550   538    1
  1781   387   385    2
  1782   391   390    1
  1783  1202  1195   ar
  1784   368   370    1
  1785   584   579    1
  1786  1262  1261   ar
  1787   596   595    2
  1788  1265  1258   ar
  1789   407   405    2
  1790  1082  1080    2
  1791   392   390    1
  1792   392   393    1
  1793   536   541    1
  1794   575   573    2
  1795   370   372    1
  1796   370   371    1
  1797   537   538    1
  1798   537   539    1
  1799  1157  1156    2
  1800  1243  1231    1
  1801  1243  1245    1
  1802  1091  1086    1
  1803  1091  1089    1
  1804  1236  1238   ar
  1805  1236  1235   ar
  1806   595   581    1
  1807   595   597    1
  1808  1117  1116    2
  1809  1238  1239   ar
  1810   553   554    1
  1811  1232  1230    1
  1812  1232  1234    1
  1813  1137  1136    2
  1814   542   541    1
  1815   542   543   ar
  1816   372   373    1
  1817  1256  1257   ar
  1818  1116  1115   ar
  1819  1086  1085    1
  1820  1065  1080    1
  1821   580   581    1
  1822   580   578    1
  1823   405   393    1
  1824   405   406    1
  1825   388   385    1
  1826   388   389    1
  1827  1138  1136   ar
  1828  1138  1139   ar
  1829  1121  1122   ar
  1830  1231  1230    1
  1831  1198  1196   ar
  1832   545   543   ar
  1833   390   389    1
  1834  1177  1176    2
  1835  1158  1156   ar
  1836  1158  1159   ar
  1837  1261  1259   ar
  1838  1258  1257   ar
  1839  1258  1259   ar
  1840  1156  1155   ar
  1841  1140  1139    1
  1842   385   371    1
  1843   385   386    1
  1844  1136  1135   ar
  1845   541   539    1
  1846   576   573    1
  1847   576   577    1
  1848  1193  1192    1
  1849   579   578    1
  1850  1080  1083    1
  1851  1080  1081    1
  1852   561   559    1
  1853   561   556    1
  1854  1230  1228    1
  1855  1195  1196   ar
  1856  1195  1194    1
  1857  1139  1141   ar
  1858   543   544    2
  1859  1083  1084    1
  1860  1240  1239    2
  1861   559   557    1
  1862   559   560    1
  1863  1115  1122   ar
  1864  1115  1114    1
  1865   539   540    1
  1866  1259  1260    2
  1867   573   558    1
  1868   573   574    1
  1869  1234  1235    1
  1870  1234  1229    1
  1871  1235  1242   ar
  1872  1239  1241   ar
  1873   557   555    1
  1874   557   558    1
  1875  1160  1159    2
  1876  1159  1161   ar
  1877   578   577    1
  1878  1196  1197    2
  1879  1089  1090    1
  1880  1089  1087    1
  1881   556   555    1
  1882  1176  1178   ar
  1883  1176  1175   ar
  1884  1155  1154    1
  1885  1155  1162   ar
  1886   554   555    1
  1887  1154  1149    1
  1888  1154  1152    1
  1889  1173  1172    1
  1890  1085  1084    1
  1891  1085  1087    1
  1892  1135  1134    1
  1893  1135  1142   ar
  1894  1178  1179   ar
  1895  1153  1152    1
  1896  1174  1175    1
  1897  1174  1169    1
  1898  1174  1172    1
  1899  1194  1192    1
  1900  1194  1189    1
  1901  1192  1190    1
  1902  1114  1109    1
  1903  1114  1112    1
  1904  1141  1142   ar
  1905  1134  1129    1
  1906  1134  1132    1
  1907  1087  1088    1
  1908  1175  1182   ar
  1909  1242  1241   ar
  1910  1149  1148    1
  1911  1161  1162   ar
  1912  1169  1168    1
  1913  1224  1223    2
  1914  1228  1229    1
  1915  1228  1227    1
  1916  1152  1150    1
  1917  1226  1223    1
  1918  1226  1227    1
  1919  1172  1170    1
  1920  1109  1108    1
  1921  1179  1180    1
  1922  1179  1181   ar
  1923  1207  1208    1
  1924  1207  1206    1
  1925  1133  1132    1
  1926  1208  1209    1
  1927  1208  1210    1
  1928  1129  1128    1
  1929  1132  1130    1
  1930  1168  1170    1
  1931  1168  1167    1
  1932  1112  1113    1
  1933  1112  1110    1
  1934  1182  1181   ar
  1935  1209  1214    1
  1936  1191  1190    1
  1937  1191  1203    1
  1938  1189  1188    1
  1939  1223  1211    1
  1940  1223  1225    1
  1941  1211  1210    1
  1942  1190  1188    1
  1943  1148  1150    1
  1944  1148  1147    1
  1945  1088  1103    1
  1946  1170  1171    1
  1947  1150  1151    1
  1948  1210  1212    1
  1949  1105  1103    2
  1950  1206  1203    1
  1951  1108  1110    1
  1952  1108  1107    1
  1953  1167  1166    1
  1954  1171  1183    1
  1955  1188  1187    1
  1956  1214  1212    1
  1957  1214  1215    1
  1958  1128  1130    1
  1959  1128  1127    1
  1960  1110  1111    1
  1961  1106  1103    1
  1962  1106  1107    1
  1963  1130  1131    1
  1964  1203  1204    2
  1965  1203  1205    1
  1966  1186  1187    1
  1967  1186  1183    1
  1968  1147  1146    1
  1969  1103  1104    1
  1970  1151  1163    1
  1971  1212  1213    1
  1972  1166  1163    1
  1973  1215  1222   ar
  1974  1215  1216   ar
  1975  1146  1143    1
  1976  1222  1221   ar
  1977  1183  1184    2
  1978  1183  1185    1
  1979  1127  1126    1
  1980  1131  1143    1
  1981  1126  1123    1
  1982  1217  1216    2
  1983  1111  1123    1
  1984  1216  1218   ar
  1985  1163  1165    2
  1986  1163  1164    1
  1987  1221  1219   ar
  1988  1143  1145    2
  1989  1143  1144    1
  1990  1125  1123    2
  1991  1123  1124    1
  1992  1218  1219   ar
  1993  1219  1220    1
