ligand
 OpenBabel11021811503D
libRbt.so/2013.1/901 2013/11/27
 27 29  0  0  0  0  0  0  0  0999 V2000
   45.4729  -27.7434 -103.1124 N   0  0  0  0  0  0  0  0  0  0  0  0
   45.8053  -26.6003 -103.9700 C   0  0  2  0  0  0  0  0  0  0  0  0
   45.1550  -26.7798 -105.3257 C   0  0  0  0  0  0  0  0  0  0  0  0
   45.4761  -26.0623 -106.2610 O   0  0  0  0  0  0  0  0  0  0  0  0
   47.3223  -26.4676 -104.1614 C   0  0  0  0  0  0  0  0  0  0  0  0
   47.9983  -26.0588 -102.8603 C   0  0  0  0  0  0  0  0  0  0  0  0
   49.7978  -26.4117 -102.8355 S   0  0  2  0  0  0  0  0  0  0  0  0
   50.3616  -25.9357 -104.5013 C   0  0  0  0  0  0  0  0  0  0  0  0
   49.6357  -28.1779 -103.0865 C   0  0  0  0  0  0  0  0  0  0  0  0
   50.0968  -29.0014 -101.9135 C   0  0  1  0  0  0  0  0  0  0  0  0
   49.0886  -28.9176 -100.8920 O   0  0  0  0  0  0  0  0  0  0  0  0
   50.0443  -30.3780 -102.4426 C   0  0  1  0  0  0  0  0  0  0  0  0
   51.3451  -30.7758 -102.8728 O   0  0  0  0  0  0  0  0  0  0  0  0
   49.6389  -31.1713 -101.2391 C   0  0  1  0  0  0  0  0  0  0  0  0
   50.8017  -31.5555 -100.4763 O   0  0  0  0  0  0  0  0  0  0  0  0
   48.7352  -30.2301 -100.3874 C   0  0  2  0  0  0  0  0  0  0  0  0
   44.3321  -27.6608 -105.5032 O   0  0  0  0  0  0  0  0  0  0  0  0
   44.5815  -32.0154 -103.1725 N   0  0  0  0  0  0  0  0  0  0  0  0
   45.8973  -32.1550 -103.4675 C   0  0  0  0  0  0  0  0  0  0  0  0
   46.8620  -31.6871 -102.6482 N   0  0  0  0  0  0  0  0  0  0  0  0
   46.5451  -30.9843 -101.5485 C   0  0  0  0  0  0  0  0  0  0  0  0
   45.1560  -30.7760 -101.2176 C   0  0  0  0  0  0  0  0  0  0  0  0
   44.1685  -31.3354 -102.0820 C   0  0  0  0  0  0  0  0  0  0  0  0
   42.8221  -31.1827 -101.8198 N   0  0  0  0  0  0  0  0  0  0  0  0
   45.1185  -30.0511 -100.0934 N   0  0  0  0  0  0  0  0  0  0  0  0
   46.3354  -29.7931  -99.7167 C   0  0  0  0  0  0  0  0  0  0  0  0
   47.2593  -30.3491 -100.5706 N   0  0  0  0  0  0  0  0  0  0  0  0
  2  1  1  1  0  0  0
  2  3  1  0  0  0  0
  2  5  1  0  0  0  0
  3  4  1  0  0  0  0
  3 17  1  0  0  0  0
  5  6  1  0  0  0  0
  7  6  1  6  0  0  0
  7  8  1  0  0  0  0
  7  9  1  0  0  0  0
 10  9  1  6  0  0  0
 10 11  1  0  0  0  0
 10 12  1  0  0  0  0
 11 16  1  0  0  0  0
 12 13  1  1  0  0  0
 12 14  1  0  0  0  0
 14 15  1  1  0  0  0
 14 16  1  0  0  0  0
 16 27  1  6  0  0  0
 18 19  2  0  0  0  0
 18 23  1  0  0  0  0
 19 20  1  0  0  0  0
 20 21  2  0  0  0  0
 21 22  1  0  0  0  0
 21 27  1  0  0  0  0
 22 23  2  0  0  0  0
 22 25  1  0  0  0  0
 23 24  1  0  0  0  0
 25 26  2  0  0  0  0
 26 27  1  0  0  0  0
M  END
>  <CHROM.1>
-167.91608970,-68.48125603,160.84468466,41.33235533,-114.40956066,75.57191062
99.77354170,47.43630036,-29.08612065,-102.57796755,0.92853420,-0.21595476
-0.59219578

>  <Name>
ligand

>  <RI>
0

>  <Rbt.Current_Directory>
/home/itssahil/PROJECTS/Mol_Feturizer/New_Systems/rnas/4L81

>  <Rbt.Executable>
rbdock ($Id: //depot/dev/client3/rdock/2013.1/src/exe/rbdock.cxx#4 $)

>  <Rbt.Library>
libRbt.so (2013.1, Build901 2013/11/27)

>  <Rbt.Parameter_File>
/export/apps/rDock/src/rDock_2013.1_src/data/scripts/dock_solv.prm

>  <Rbt.Receptor>
prm/pocket_docking_2.prm

>  <SCORE>
-15.834

>  <SCORE.INTER>
-16.6765

>  <SCORE.INTER.CONST>
1

>  <SCORE.INTER.POLAR>
0

>  <SCORE.INTER.ROT>
7

>  <SCORE.INTER.SOLV>
18.0045

>  <SCORE.INTER.VDW>
-25.3858

>  <SCORE.INTER.norm>
-0.617649

>  <SCORE.INTRA>
0.842494

>  <SCORE.INTRA.DIHEDRAL>
1.51367

>  <SCORE.INTRA.DIHEDRAL.0>
8.34559

>  <SCORE.INTRA.POLAR>
0

>  <SCORE.INTRA.POLAR.0>
0

>  <SCORE.INTRA.REPUL>
0

>  <SCORE.INTRA.REPUL.0>
0

>  <SCORE.INTRA.SOLV>
0.233654

>  <SCORE.INTRA.SOLV.lig_0>
-48.829

>  <SCORE.INTRA.VDW>
-0.0311693

>  <SCORE.INTRA.VDW.0>
-1.77092

>  <SCORE.INTRA.norm>
0.0312035

>  <SCORE.RESTR>
0

>  <SCORE.RESTR.CAVITY>
0

>  <SCORE.RESTR.norm>
0

>  <SCORE.SYSTEM>
0

>  <SCORE.SYSTEM.CONST>
0

>  <SCORE.SYSTEM.DIHEDRAL>
0

>  <SCORE.SYSTEM.SOLV>
0

>  <SCORE.SYSTEM.norm>
0

>  <SCORE.heavy>
27

>  <SCORE.norm>
-0.586445

>  <RMSD>
0.650

$$$$
ligand
 OpenBabel11021811503D
libRbt.so/2013.1/901 2013/11/27
 27 29  0  0  0  0  0  0  0  0999 V2000
   44.6417  -27.2241 -102.4295 N   0  0  0  0  0  0  0  0  0  0  0  0
   45.5244  -26.6690 -103.4616 C   0  0  2  0  0  0  0  0  0  0  0  0
   45.2405  -27.3451 -104.7864 C   0  0  0  0  0  0  0  0  0  0  0  0
   45.2365  -26.6940 -105.8202 O   0  0  0  0  0  0  0  0  0  0  0  0
   47.0023  -26.8782 -103.1048 C   0  0  0  0  0  0  0  0  0  0  0  0
   47.9056  -26.3681 -104.2186 C   0  0  0  0  0  0  0  0  0  0  0  0
   49.6898  -26.6256 -103.8812 S   0  0  2  0  0  0  0  0  0  0  0  0
   50.4628  -26.5571 -105.5296 C   0  0  0  0  0  0  0  0  0  0  0  0
   49.5802  -28.4038 -103.6947 C   0  0  0  0  0  0  0  0  0  0  0  0
   50.1267  -28.9106 -102.3865 C   0  0  1  0  0  0  0  0  0  0  0  0
   49.1551  -28.6306 -101.3644 O   0  0  0  0  0  0  0  0  0  0  0  0
   50.1236  -30.3737 -102.5784 C   0  0  1  0  0  0  0  0  0  0  0  0
   51.4256  -30.8086 -102.9675 O   0  0  0  0  0  0  0  0  0  0  0  0
   49.8050  -30.8789 -101.2053 C   0  0  1  0  0  0  0  0  0  0  0  0
   51.0138  -31.0268 -100.4319 O   0  0  0  0  0  0  0  0  0  0  0  0
   48.8880  -29.8015 -100.5523 C   0  0  2  0  0  0  0  0  0  0  0  0
   45.0469  -28.5472 -104.8363 O   0  0  0  0  0  0  0  0  0  0  0  0
   44.6866  -31.9628 -102.9761 N   0  0  0  0  0  0  0  0  0  0  0  0
   45.9868  -32.0342 -103.3531 C   0  0  0  0  0  0  0  0  0  0  0  0
   46.9703  -31.4714 -102.6204 N   0  0  0  0  0  0  0  0  0  0  0  0
   46.6805  -30.7408 -101.5315 C   0  0  0  0  0  0  0  0  0  0  0  0
   45.3052  -30.6037 -101.1165 C   0  0  0  0  0  0  0  0  0  0  0  0
   44.3020  -31.2613 -101.8889 C   0  0  0  0  0  0  0  0  0  0  0  0
   42.9684  -31.1802 -101.5430 N   0  0  0  0  0  0  0  0  0  0  0  0
   45.2938  -29.8328 -100.0228 N   0  0  0  0  0  0  0  0  0  0  0  0
   46.5134  -29.4836  -99.7398 C   0  0  0  0  0  0  0  0  0  0  0  0
   47.4140  -30.0194 -100.6306 N   0  0  0  0  0  0  0  0  0  0  0  0
  2  1  1  1  0  0  0
  2  3  1  0  0  0  0
  2  5  1  0  0  0  0
  3  4  1  0  0  0  0
  3 17  1  0  0  0  0
  5  6  1  0  0  0  0
  7  6  1  6  0  0  0
  7  8  1  0  0  0  0
  7  9  1  0  0  0  0
 10  9  1  6  0  0  0
 10 11  1  0  0  0  0
 10 12  1  0  0  0  0
 11 16  1  0  0  0  0
 12 13  1  1  0  0  0
 12 14  1  0  0  0  0
 14 15  1  1  0  0  0
 14 16  1  0  0  0  0
 16 27  1  6  0  0  0
 18 19  2  0  0  0  0
 18 23  1  0  0  0  0
 19 20  1  0  0  0  0
 20 21  2  0  0  0  0
 21 22  1  0  0  0  0
 21 27  1  0  0  0  0
 22 23  2  0  0  0  0
 22 25  1  0  0  0  0
 23 24  1  0  0  0  0
 25 26  2  0  0  0  0
 26 27  1  0  0  0  0
M  END
>  <CHROM.1>
140.32294594,176.83651430,-178.47839417,158.81552952,-124.83492431,76.62879078
88.63038394,47.47226873,-29.10788685,-102.64805796,2.70583159,0.07076874
2.46925591

>  <Name>
ligand

>  <RI>
0

>  <Rbt.Current_Directory>
/home/itssahil/PROJECTS/Mol_Feturizer/New_Systems/rnas/4L81

>  <Rbt.Executable>
rbdock ($Id: //depot/dev/client3/rdock/2013.1/src/exe/rbdock.cxx#4 $)

>  <Rbt.Library>
libRbt.so (2013.1, Build901 2013/11/27)

>  <Rbt.Parameter_File>
/export/apps/rDock/src/rDock_2013.1_src/data/scripts/dock_solv.prm

>  <Rbt.Receptor>
prm/pocket_docking_2.prm

>  <SCORE>
-14.1087

>  <SCORE.INTER>
-12.2476

>  <SCORE.INTER.CONST>
1

>  <SCORE.INTER.POLAR>
0

>  <SCORE.INTER.ROT>
7

>  <SCORE.INTER.SOLV>
21.7445

>  <SCORE.INTER.VDW>
-23.6799

>  <SCORE.INTER.norm>
-0.453615

>  <SCORE.INTRA>
-1.86108

>  <SCORE.INTRA.DIHEDRAL>
0.628741

>  <SCORE.INTRA.DIHEDRAL.0>
8.34559

>  <SCORE.INTRA.POLAR>
0

>  <SCORE.INTRA.POLAR.0>
0

>  <SCORE.INTRA.REPUL>
0

>  <SCORE.INTRA.REPUL.0>
0

>  <SCORE.INTRA.SOLV>
-0.771496

>  <SCORE.INTRA.SOLV.lig_0>
-48.829

>  <SCORE.INTRA.VDW>
-1.78971

>  <SCORE.INTRA.VDW.0>
-1.77092

>  <SCORE.INTRA.norm>
-0.068929

>  <SCORE.RESTR>
0

>  <SCORE.RESTR.CAVITY>
0

>  <SCORE.RESTR.norm>
0

>  <SCORE.SYSTEM>
0

>  <SCORE.SYSTEM.CONST>
0

>  <SCORE.SYSTEM.DIHEDRAL>
0

>  <SCORE.SYSTEM.SOLV>
0

>  <SCORE.SYSTEM.norm>
0

>  <SCORE.heavy>
27

>  <SCORE.norm>
-0.522544

>  <RMSD>
0.658

$$$$
ligand
 OpenBabel11021811503D
libRbt.so/2013.1/901 2013/11/27
 27 29  0  0  0  0  0  0  0  0999 V2000
   45.4793  -27.4679 -102.5712 N   0  0  0  0  0  0  0  0  0  0  0  0
   45.9551  -26.4214 -103.4828 C   0  0  2  0  0  0  0  0  0  0  0  0
   45.1552  -26.4685 -104.7676 C   0  0  0  0  0  0  0  0  0  0  0  0
   43.9409  -26.3359 -104.7406 O   0  0  0  0  0  0  0  0  0  0  0  0
   47.4417  -26.6049 -103.8172 C   0  0  0  0  0  0  0  0  0  0  0  0
   48.2857  -26.6023 -102.5505 C   0  0  0  0  0  0  0  0  0  0  0  0
   50.0869  -26.7098 -102.8786 S   0  0  2  0  0  0  0  0  0  0  0  0
   50.2579  -26.1107 -104.5907 C   0  0  0  0  0  0  0  0  0  0  0  0
   50.1048  -28.4731 -103.1938 C   0  0  0  0  0  0  0  0  0  0  0  0
   50.5471  -29.2952 -102.0125 C   0  0  1  0  0  0  0  0  0  0  0  0
   49.5894  -29.1029 -100.9576 O   0  0  0  0  0  0  0  0  0  0  0  0
   50.3680  -30.6785 -102.4944 C   0  0  1  0  0  0  0  0  0  0  0  0
   51.6163  -31.1893 -102.9594 O   0  0  0  0  0  0  0  0  0  0  0  0
   49.9506  -31.4019 -101.2516 C   0  0  1  0  0  0  0  0  0  0  0  0
   51.1095  -31.8532 -100.5204 O   0  0  0  0  0  0  0  0  0  0  0  0
   49.1563  -30.3683 -100.3980 C   0  0  2  0  0  0  0  0  0  0  0  0
   45.7178  -26.6055 -105.8398 O   0  0  0  0  0  0  0  0  0  0  0  0
   44.7705  -31.9125 -102.9627 N   0  0  0  0  0  0  0  0  0  0  0  0
   46.0589  -32.1646 -103.3007 C   0  0  0  0  0  0  0  0  0  0  0  0
   47.0885  -31.7472 -102.5347 N   0  0  0  0  0  0  0  0  0  0  0  0
   46.8704  -30.9860 -101.4501 C   0  0  0  0  0  0  0  0  0  0  0  0
   45.5156  -30.6584 -101.0760 C   0  0  0  0  0  0  0  0  0  0  0  0
   44.4546  -31.1667 -101.8829 C   0  0  0  0  0  0  0  0  0  0  0  0
   43.1354  -30.9001 -101.5770 N   0  0  0  0  0  0  0  0  0  0  0  0
   45.5786  -29.8962  -99.9778 N   0  0  0  0  0  0  0  0  0  0  0  0
   46.8258  -29.7224  -99.6556 C   0  0  0  0  0  0  0  0  0  0  0  0
   47.6695  -30.3769 -100.5224 N   0  0  0  0  0  0  0  0  0  0  0  0
  2  1  1  1  0  0  0
  2  3  1  0  0  0  0
  2  5  1  0  0  0  0
  3  4  1  0  0  0  0
  3 17  1  0  0  0  0
  5  6  1  0  0  0  0
  7  6  1  6  0  0  0
  7  8  1  0  0  0  0
  7  9  1  0  0  0  0
 10  9  1  6  0  0  0
 10 11  1  0  0  0  0
 10 12  1  0  0  0  0
 11 16  1  0  0  0  0
 12 13  1  1  0  0  0
 12 14  1  0  0  0  0
 14 15  1  1  0  0  0
 14 16  1  0  0  0  0
 16 27  1  6  0  0  0
 18 19  2  0  0  0  0
 18 23  1  0  0  0  0
 19 20  1  0  0  0  0
 20 21  2  0  0  0  0
 21 22  1  0  0  0  0
 21 27  1  0  0  0  0
 22 23  2  0  0  0  0
 22 25  1  0  0  0  0
 23 24  1  0  0  0  0
 25 26  2  0  0  0  0
 26 27  1  0  0  0  0
M  END
>  <CHROM.1>
58.44147994,-57.67144115,-176.31459384,22.29337182,-98.86274902,63.33838245
99.97157584,47.68845918,-29.13695084,-102.43109898,2.51769120,-0.08710748
-0.52960608

>  <Name>
ligand

>  <RI>
0

>  <Rbt.Current_Directory>
/home/itssahil/PROJECTS/Mol_Feturizer/New_Systems/rnas/4L81

>  <Rbt.Executable>
rbdock ($Id: //depot/dev/client3/rdock/2013.1/src/exe/rbdock.cxx#4 $)

>  <Rbt.Library>
libRbt.so (2013.1, Build901 2013/11/27)

>  <Rbt.Parameter_File>
/export/apps/rDock/src/rDock_2013.1_src/data/scripts/dock_solv.prm

>  <Rbt.Receptor>
prm/pocket_docking_2.prm

>  <SCORE>
-17.1643

>  <SCORE.INTER>
-18.1008

>  <SCORE.INTER.CONST>
1

>  <SCORE.INTER.POLAR>
0

>  <SCORE.INTER.ROT>
7

>  <SCORE.INTER.SOLV>
18.8112

>  <SCORE.INTER.VDW>
-26.6043

>  <SCORE.INTER.norm>
-0.6704

>  <SCORE.INTRA>
0.926981

>  <SCORE.INTRA.DIHEDRAL>
-0.691735

>  <SCORE.INTRA.DIHEDRAL.0>
8.34559

>  <SCORE.INTRA.POLAR>
0

>  <SCORE.INTRA.POLAR.0>
0

>  <SCORE.INTRA.REPUL>
0

>  <SCORE.INTRA.REPUL.0>
0

>  <SCORE.INTRA.SOLV>
0.322693

>  <SCORE.INTRA.SOLV.lig_0>
-48.829

>  <SCORE.INTRA.VDW>
1.1115

>  <SCORE.INTRA.VDW.0>
-1.77092

>  <SCORE.INTRA.norm>
0.0343326

>  <SCORE.RESTR>
0.00952364

>  <SCORE.RESTR.CAVITY>
0.00952364

>  <SCORE.RESTR.norm>
0.000352727

>  <SCORE.SYSTEM>
0

>  <SCORE.SYSTEM.CONST>
0

>  <SCORE.SYSTEM.DIHEDRAL>
0

>  <SCORE.SYSTEM.SOLV>
0

>  <SCORE.SYSTEM.norm>
0

>  <SCORE.heavy>
27

>  <SCORE.norm>
-0.635715

>  <RMSD>
0.714

$$$$
ligand
 OpenBabel11021811503D
libRbt.so/2013.1/901 2013/11/27
 27 29  0  0  0  0  0  0  0  0999 V2000
   45.4642  -27.3139 -102.7389 N   0  0  0  0  0  0  0  0  0  0  0  0
   45.7762  -26.2801 -103.7321 C   0  0  2  0  0  0  0  0  0  0  0  0
   45.0451  -26.5826 -105.0231 C   0  0  0  0  0  0  0  0  0  0  0  0
   45.2598  -27.6264 -105.6207 O   0  0  0  0  0  0  0  0  0  0  0  0
   47.2826  -26.2165 -104.0184 C   0  0  0  0  0  0  0  0  0  0  0  0
   48.0588  -25.8634 -102.7576 C   0  0  0  0  0  0  0  0  0  0  0  0
   49.8375  -26.2998 -102.8544 S   0  0  2  0  0  0  0  0  0  0  0  0
   50.3026  -25.8703 -104.5628 C   0  0  0  0  0  0  0  0  0  0  0  0
   49.5771  -28.0593 -103.0669 C   0  0  0  0  0  0  0  0  0  0  0  0
   50.0471  -28.8866 -101.9000 C   0  0  1  0  0  0  0  0  0  0  0  0
   49.0599  -28.7837 -100.8600 O   0  0  0  0  0  0  0  0  0  0  0  0
   49.9627  -30.2638 -102.4236 C   0  0  1  0  0  0  0  0  0  0  0  0
   51.2486  -30.6837 -102.8769 O   0  0  0  0  0  0  0  0  0  0  0  0
   49.5676  -31.0469 -101.2100 C   0  0  1  0  0  0  0  0  0  0  0  0
   50.7382  -31.4474 -100.4681 O   0  0  0  0  0  0  0  0  0  0  0  0
   48.6952  -30.0888 -100.3445 C   0  0  2  0  0  0  0  0  0  0  0  0
   44.2143  -25.8047 -105.4583 O   0  0  0  0  0  0  0  0  0  0  0  0
   44.4600  -32.0002 -102.9150 N   0  0  0  0  0  0  0  0  0  0  0  0
   45.7677  -32.1992 -103.2120 C   0  0  0  0  0  0  0  0  0  0  0  0
   46.7551  -31.6872 -102.4478 N   0  0  0  0  0  0  0  0  0  0  0  0
   46.4710  -30.8836 -101.4100 C   0  0  0  0  0  0  0  0  0  0  0  0
   45.0923  -30.6112 -101.0824 C   0  0  0  0  0  0  0  0  0  0  0  0
   44.0792  -31.2176 -101.8832 C   0  0  0  0  0  0  0  0  0  0  0  0
   42.7409  -31.0076 -101.6196 N   0  0  0  0  0  0  0  0  0  0  0  0
   45.0885  -29.7907 -100.0252 N   0  0  0  0  0  0  0  0  0  0  0  0
   46.3166  -29.5329  -99.6866 C   0  0  0  0  0  0  0  0  0  0  0  0
   47.2143  -30.1847 -100.4995 N   0  0  0  0  0  0  0  0  0  0  0  0
  2  1  1  1  0  0  0
  2  3  1  0  0  0  0
  2  5  1  0  0  0  0
  3  4  1  0  0  0  0
  3 17  1  0  0  0  0
  5  6  1  0  0  0  0
  7  6  1  6  0  0  0
  7  8  1  0  0  0  0
  7  9  1  0  0  0  0
 10  9  1  6  0  0  0
 10 11  1  0  0  0  0
 10 12  1  0  0  0  0
 11 16  1  0  0  0  0
 12 13  1  1  0  0  0
 12 14  1  0  0  0  0
 14 15  1  1  0  0  0
 14 16  1  0  0  0  0
 16 27  1  6  0  0  0
 18 19  2  0  0  0  0
 18 23  1  0  0  0  0
 19 20  1  0  0  0  0
 20 21  2  0  0  0  0
 21 22  1  0  0  0  0
 21 27  1  0  0  0  0
 22 23  2  0  0  0  0
 22 25  1  0  0  0  0
 23 24  1  0  0  0  0
 25 26  2  0  0  0  0
 26 27  1  0  0  0  0
M  END
>  <CHROM.1>
-60.48870189,-61.27308118,160.93001769,39.55866943,-112.78256897,78.08652563
104.62759127,47.37640248,-28.93930527,-102.45673360,0.88027557,-0.16632654
-0.54921428

>  <Name>
ligand

>  <RI>
0

>  <Rbt.Current_Directory>
/home/itssahil/PROJECTS/Mol_Feturizer/New_Systems/rnas/4L81

>  <Rbt.Executable>
rbdock ($Id: //depot/dev/client3/rdock/2013.1/src/exe/rbdock.cxx#4 $)

>  <Rbt.Library>
libRbt.so (2013.1, Build901 2013/11/27)

>  <Rbt.Parameter_File>
/export/apps/rDock/src/rDock_2013.1_src/data/scripts/dock_solv.prm

>  <Rbt.Receptor>
prm/pocket_docking_2.prm

>  <SCORE>
-17.0359

>  <SCORE.INTER>
-17.6116

>  <SCORE.INTER.CONST>
1

>  <SCORE.INTER.POLAR>
0

>  <SCORE.INTER.ROT>
7

>  <SCORE.INTER.SOLV>
19.8745

>  <SCORE.INTER.VDW>
-26.6325

>  <SCORE.INTER.norm>
-0.65228

>  <SCORE.INTRA>
0.575639

>  <SCORE.INTRA.DIHEDRAL>
1.40839

>  <SCORE.INTRA.DIHEDRAL.0>
8.34559

>  <SCORE.INTRA.POLAR>
0

>  <SCORE.INTRA.POLAR.0>
0

>  <SCORE.INTRA.REPUL>
0

>  <SCORE.INTRA.REPUL.0>
0

>  <SCORE.INTRA.SOLV>
0.251853

>  <SCORE.INTRA.SOLV.lig_0>
-48.829

>  <SCORE.INTRA.VDW>
-0.254485

>  <SCORE.INTRA.VDW.0>
-1.77092

>  <SCORE.INTRA.norm>
0.02132

>  <SCORE.RESTR>
0

>  <SCORE.RESTR.CAVITY>
0

>  <SCORE.RESTR.norm>
0

>  <SCORE.SYSTEM>
0

>  <SCORE.SYSTEM.CONST>
0

>  <SCORE.SYSTEM.DIHEDRAL>
0

>  <SCORE.SYSTEM.SOLV>
0

>  <SCORE.SYSTEM.norm>
0

>  <SCORE.heavy>
27

>  <SCORE.norm>
-0.63096

>  <RMSD>
0.731

$$$$
ligand
 OpenBabel11021811503D
libRbt.so/2013.1/901 2013/11/27
 27 29  0  0  0  0  0  0  0  0999 V2000
   45.2618  -26.2913 -103.0769 N   0  0  0  0  0  0  0  0  0  0  0  0
   46.2057  -26.9080 -104.0158 C   0  0  2  0  0  0  0  0  0  0  0  0
   45.4415  -27.7210 -105.0395 C   0  0  0  0  0  0  0  0  0  0  0  0
   44.6102  -28.5399 -104.6775 O   0  0  0  0  0  0  0  0  0  0  0  0
   47.1953  -27.8291 -103.2894 C   0  0  0  0  0  0  0  0  0  0  0  0
   48.0721  -27.0342 -102.3323 C   0  0  0  0  0  0  0  0  0  0  0  0
   49.7878  -26.8068 -102.9390 S   0  0  2  0  0  0  0  0  0  0  0  0
   49.5741  -26.2142 -104.6486 C   0  0  0  0  0  0  0  0  0  0  0  0
   50.0877  -28.5402 -103.2768 C   0  0  0  0  0  0  0  0  0  0  0  0
   50.5254  -29.3259 -102.0693 C   0  0  1  0  0  0  0  0  0  0  0  0
   49.5490  -29.1237 -101.0336 O   0  0  0  0  0  0  0  0  0  0  0  0
   50.3759  -30.7232 -102.5196 C   0  0  1  0  0  0  0  0  0  0  0  0
   51.6392  -31.2245 -102.9535 O   0  0  0  0  0  0  0  0  0  0  0  0
   49.9517  -31.4230 -101.2656 C   0  0  1  0  0  0  0  0  0  0  0  0
   51.1066  -31.8370 -100.5066 O   0  0  0  0  0  0  0  0  0  0  0  0
   49.1281  -30.3821 -100.4494 C   0  0  2  0  0  0  0  0  0  0  0  0
   45.6250  -27.5421 -106.2308 O   0  0  0  0  0  0  0  0  0  0  0  0
   44.8128  -31.9157 -103.1373 N   0  0  0  0  0  0  0  0  0  0  0  0
   46.1110  -32.1254 -103.4668 C   0  0  0  0  0  0  0  0  0  0  0  0
   47.1206  -31.7173 -102.6698 N   0  0  0  0  0  0  0  0  0  0  0  0
   46.8709  -31.0062 -101.5583 C   0  0  0  0  0  0  0  0  0  0  0  0
   45.5042  -30.7241 -101.1906 C   0  0  0  0  0  0  0  0  0  0  0  0
   44.4658  -31.2221 -102.0325 C   0  0  0  0  0  0  0  0  0  0  0  0
   43.1370  -30.9973 -101.7349 N   0  0  0  0  0  0  0  0  0  0  0  0
   45.5353  -30.0064 -100.0615 N   0  0  0  0  0  0  0  0  0  0  0  0
   46.7738  -29.8186  -99.7147 C   0  0  0  0  0  0  0  0  0  0  0  0
   47.6436  -30.4183 -100.5953 N   0  0  0  0  0  0  0  0  0  0  0  0
  2  1  1  1  0  0  0
  2  3  1  0  0  0  0
  2  5  1  0  0  0  0
  3  4  1  0  0  0  0
  3 17  1  0  0  0  0
  5  6  1  0  0  0  0
  7  6  1  1  0  0  0
  7  8  1  0  0  0  0
  7  9  1  0  0  0  0
 10  9  1  6  0  0  0
 10 11  1  0  0  0  0
 10 12  1  0  0  0  0
 11 16  1  0  0  0  0
 12 13  1  1  0  0  0
 12 14  1  0  0  0  0
 14 15  1  1  0  0  0
 14 16  1  0  0  0  0
 16 27  1  6  0  0  0
 18 19  2  0  0  0  0
 18 23  1  0  0  0  0
 19 20  1  0  0  0  0
 20 21  2  0  0  0  0
 21 22  1  0  0  0  0
 21 27  1  0  0  0  0
 22 23  2  0  0  0  0
 22 25  1  0  0  0  0
 23 24  1  0  0  0  0
 25 26  2  0  0  0  0
 26 27  1  0  0  0  0
M  END
>  <CHROM.1>
-50.94580769,-64.05148981,-105.64949898,49.14377744,-83.83300472,54.24219682
96.20758312,47.65146182,-29.37146639,-102.52019811,-2.84187901,0.15698320
2.55719770

>  <Name>
ligand

>  <RI>
0

>  <Rbt.Current_Directory>
/home/itssahil/PROJECTS/Mol_Feturizer/New_Systems/rnas/4L81

>  <Rbt.Executable>
rbdock ($Id: //depot/dev/client3/rdock/2013.1/src/exe/rbdock.cxx#4 $)

>  <Rbt.Library>
libRbt.so (2013.1, Build901 2013/11/27)

>  <Rbt.Parameter_File>
/export/apps/rDock/src/rDock_2013.1_src/data/scripts/dock_solv.prm

>  <Rbt.Receptor>
prm/pocket_docking_2.prm

>  <SCORE>
-15.0314

>  <SCORE.INTER>
-13.9839

>  <SCORE.INTER.CONST>
1

>  <SCORE.INTER.POLAR>
0

>  <SCORE.INTER.ROT>
7

>  <SCORE.INTER.SOLV>
20.0794

>  <SCORE.INTER.VDW>
-24.2824

>  <SCORE.INTER.norm>
-0.517923

>  <SCORE.INTRA>
-1.05405

>  <SCORE.INTRA.DIHEDRAL>
0.660678

>  <SCORE.INTRA.DIHEDRAL.0>
8.34559

>  <SCORE.INTRA.POLAR>
0

>  <SCORE.INTRA.POLAR.0>
0

>  <SCORE.INTRA.REPUL>
0

>  <SCORE.INTRA.REPUL.0>
0

>  <SCORE.INTRA.SOLV>
-0.225594

>  <SCORE.INTRA.SOLV.lig_0>
-48.829

>  <SCORE.INTRA.VDW>
-1.27159

>  <SCORE.INTRA.VDW.0>
-1.77092

>  <SCORE.INTRA.norm>
-0.0390388

>  <SCORE.RESTR>
0.00659804

>  <SCORE.RESTR.CAVITY>
0.00659804

>  <SCORE.RESTR.norm>
0.000244372

>  <SCORE.SYSTEM>
0

>  <SCORE.SYSTEM.CONST>
0

>  <SCORE.SYSTEM.DIHEDRAL>
0

>  <SCORE.SYSTEM.SOLV>
0

>  <SCORE.SYSTEM.norm>
0

>  <SCORE.heavy>
27

>  <SCORE.norm>
-0.556718

>  <RMSD>
0.807

$$$$
ligand
 OpenBabel11021811503D
libRbt.so/2013.1/901 2013/11/27
 27 29  0  0  0  0  0  0  0  0999 V2000
   45.2616  -27.0230 -102.6969 N   0  0  0  0  0  0  0  0  0  0  0  0
   45.8257  -25.9324 -103.5002 C   0  0  2  0  0  0  0  0  0  0  0  0
   45.6358  -26.2379 -104.9710 C   0  0  0  0  0  0  0  0  0  0  0  0
   44.9219  -27.1665 -105.3186 O   0  0  0  0  0  0  0  0  0  0  0  0
   47.3237  -25.7496 -103.2210 C   0  0  0  0  0  0  0  0  0  0  0  0
   48.0404  -27.0924 -103.2114 C   0  0  0  0  0  0  0  0  0  0  0  0
   49.8655  -26.9414 -103.3091 S   0  0  2  0  0  0  0  0  0  0  0  0
   50.1741  -26.4569 -105.0381 C   0  0  0  0  0  0  0  0  0  0  0  0
   50.1816  -28.6991 -103.4480 C   0  0  0  0  0  0  0  0  0  0  0  0
   50.6203  -29.3396 -102.1580 C   0  0  1  0  0  0  0  0  0  0  0  0
   49.6359  -29.0330 -101.1560 O   0  0  0  0  0  0  0  0  0  0  0  0
   50.4877  -30.7802 -102.4492 C   0  0  1  0  0  0  0  0  0  0  0  0
   51.7585  -31.3134 -102.8183 O   0  0  0  0  0  0  0  0  0  0  0  0
   50.0632  -31.3394 -101.1266 C   0  0  1  0  0  0  0  0  0  0  0  0
   51.2179  -31.6532 -100.3206 O   0  0  0  0  0  0  0  0  0  0  0  0
   49.2243  -30.2224 -100.4362 C   0  0  2  0  0  0  0  0  0  0  0  0
   46.1656  -25.5413 -105.8190 O   0  0  0  0  0  0  0  0  0  0  0  0
   44.9429  -32.0217 -103.0111 N   0  0  0  0  0  0  0  0  0  0  0  0
   46.2454  -32.2383 -103.3187 C   0  0  0  0  0  0  0  0  0  0  0  0
   47.2456  -31.7550 -102.5525 N   0  0  0  0  0  0  0  0  0  0  0  0
   46.9810  -30.9628 -101.5008 C   0  0  0  0  0  0  0  0  0  0  0  0
   45.6090  -30.6721 -101.1611 C   0  0  0  0  0  0  0  0  0  0  0  0
   44.5813  -31.2488 -101.9652 C   0  0  0  0  0  0  0  0  0  0  0  0
   43.2482  -31.0202 -101.6907 N   0  0  0  0  0  0  0  0  0  0  0  0
   45.6250  -29.8681 -100.0915 N   0  0  0  0  0  0  0  0  0  0  0  0
   46.8592  -29.6364  -99.7561 C   0  0  0  0  0  0  0  0  0  0  0  0
   47.7412  -30.2907 -100.5841 N   0  0  0  0  0  0  0  0  0  0  0  0
  2  1  1  1  0  0  0
  2  3  1  0  0  0  0
  2  5  1  0  0  0  0
  3  4  1  0  0  0  0
  3 17  1  0  0  0  0
  5  6  1  0  0  0  0
  7  6  1  6  0  0  0
  7  8  1  0  0  0  0
  7  9  1  0  0  0  0
 10  9  1  6  0  0  0
 10 11  1  0  0  0  0
 10 12  1  0  0  0  0
 11 16  1  0  0  0  0
 12 13  1  1  0  0  0
 12 14  1  0  0  0  0
 14 15  1  1  0  0  0
 14 16  1  0  0  0  0
 16 27  1  6  0  0  0
 18 19  2  0  0  0  0
 18 23  1  0  0  0  0
 19 20  1  0  0  0  0
 20 21  2  0  0  0  0
 21 22  1  0  0  0  0
 21 27  1  0  0  0  0
 22 23  2  0  0  0  0
 22 25  1  0  0  0  0
 23 24  1  0  0  0  0
 25 26  2  0  0  0  0
 26 27  1  0  0  0  0
M  END
>  <CHROM.1>
10.31850675,45.72398101,165.43338567,-73.29618528,-100.71836705,54.36248722
94.23608599,47.77964903,-29.11356173,-102.54703262,2.07605379,-0.05579086
-0.55035264

>  <Name>
ligand

>  <RI>
0

>  <Rbt.Current_Directory>
/home/itssahil/PROJECTS/Mol_Feturizer/New_Systems/rnas/4L81

>  <Rbt.Executable>
rbdock ($Id: //depot/dev/client3/rdock/2013.1/src/exe/rbdock.cxx#4 $)

>  <Rbt.Library>
libRbt.so (2013.1, Build901 2013/11/27)

>  <Rbt.Parameter_File>
/export/apps/rDock/src/rDock_2013.1_src/data/scripts/dock_solv.prm

>  <Rbt.Receptor>
prm/pocket_docking_4.prm

>  <SCORE>
-17.975

>  <SCORE.INTER>
-16.3982

>  <SCORE.INTER.CONST>
1

>  <SCORE.INTER.POLAR>
0

>  <SCORE.INTER.ROT>
7

>  <SCORE.INTER.SOLV>
19.3438

>  <SCORE.INTER.VDW>
-25.6468

>  <SCORE.INTER.norm>
-0.607342

>  <SCORE.INTRA>
-1.57679

>  <SCORE.INTRA.DIHEDRAL>
-0.827592

>  <SCORE.INTRA.DIHEDRAL.0>
8.34559

>  <SCORE.INTRA.POLAR>
0

>  <SCORE.INTRA.POLAR.0>
0

>  <SCORE.INTRA.REPUL>
0

>  <SCORE.INTRA.REPUL.0>
0

>  <SCORE.INTRA.SOLV>
-0.342686

>  <SCORE.INTRA.SOLV.lig_0>
-48.829

>  <SCORE.INTRA.VDW>
-0.991656

>  <SCORE.INTRA.VDW.0>
-1.77092

>  <SCORE.INTRA.norm>
-0.0583998

>  <SCORE.RESTR>
0

>  <SCORE.RESTR.CAVITY>
0

>  <SCORE.RESTR.norm>
0

>  <SCORE.SYSTEM>
0

>  <SCORE.SYSTEM.CONST>
0

>  <SCORE.SYSTEM.DIHEDRAL>
0

>  <SCORE.SYSTEM.SOLV>
0

>  <SCORE.SYSTEM.norm>
0

>  <SCORE.heavy>
27

>  <SCORE.norm>
-0.665742

>  <RMSD>
0.820

$$$$
ligand
 OpenBabel11021811503D
libRbt.so/2013.1/901 2013/11/27
 27 29  0  0  0  0  0  0  0  0999 V2000
   45.0868  -28.5137 -104.7241 N   0  0  0  0  0  0  0  0  0  0  0  0
   45.1929  -27.1217 -104.2727 C   0  0  2  0  0  0  0  0  0  0  0  0
   44.3206  -26.2407 -105.1419 C   0  0  0  0  0  0  0  0  0  0  0  0
   43.1086  -26.3947 -105.1520 O   0  0  0  0  0  0  0  0  0  0  0  0
   46.6404  -26.6177 -104.3506 C   0  0  0  0  0  0  0  0  0  0  0  0
   47.5921  -27.5989 -103.6808 C   0  0  0  0  0  0  0  0  0  0  0  0
   49.3593  -27.1610 -103.9011 S   0  0  2  0  0  0  0  0  0  0  0  0
   49.5065  -26.8127 -105.6834 C   0  0  0  0  0  0  0  0  0  0  0  0
   49.9624  -28.8477 -103.8925 C   0  0  0  0  0  0  0  0  0  0  0  0
   50.4133  -29.3230 -102.5370 C   0  0  1  0  0  0  0  0  0  0  0  0
   49.4249  -28.9163 -101.5755 O   0  0  0  0  0  0  0  0  0  0  0  0
   50.3051  -30.7900 -102.6548 C   0  0  1  0  0  0  0  0  0  0  0  0
   51.5844  -31.3417 -102.9619 O   0  0  0  0  0  0  0  0  0  0  0  0
   49.8917  -31.1952 -101.2738 C   0  0  1  0  0  0  0  0  0  0  0  0
   51.0524  -31.3916 -100.4398 O   0  0  0  0  0  0  0  0  0  0  0  0
   49.0345  -30.0185 -100.7183 C   0  0  2  0  0  0  0  0  0  0  0  0
   44.8158  -25.3512 -105.8116 O   0  0  0  0  0  0  0  0  0  0  0  0
   44.7823  -32.1336 -103.0937 N   0  0  0  0  0  0  0  0  0  0  0  0
   46.0879  -32.3530 -103.3855 C   0  0  0  0  0  0  0  0  0  0  0  0
   47.0805  -31.7808 -102.6725 N   0  0  0  0  0  0  0  0  0  0  0  0
   46.8033  -30.8986 -101.6987 C   0  0  0  0  0  0  0  0  0  0  0  0
   45.4267  -30.6037 -101.3815 C   0  0  0  0  0  0  0  0  0  0  0  0
   44.4084  -31.2730 -102.1233 C   0  0  0  0  0  0  0  0  0  0  0  0
   43.0719  -31.0453 -101.8655 N   0  0  0  0  0  0  0  0  0  0  0  0
   45.4299  -29.7027 -100.3920 N   0  0  0  0  0  0  0  0  0  0  0  0
   46.6602  -29.4168 -100.0854 C   0  0  0  0  0  0  0  0  0  0  0  0
   47.5526  -30.1289 -100.8524 N   0  0  0  0  0  0  0  0  0  0  0  0
  2  1  1  6  0  0  0
  2  3  1  0  0  0  0
  2  5  1  0  0  0  0
  3  4  1  0  0  0  0
  3 17  1  0  0  0  0
  5  6  1  0  0  0  0
  7  6  1  6  0  0  0
  7  8  1  0  0  0  0
  7  9  1  0  0  0  0
 10  9  1  6  0  0  0
 10 11  1  0  0  0  0
 10 12  1  0  0  0  0
 11 16  1  0  0  0  0
 12 13  1  1  0  0  0
 12 14  1  0  0  0  0
 14 15  1  1  0  0  0
 14 16  1  0  0  0  0
 16 27  1  6  0  0  0
 18 19  2  0  0  0  0
 18 23  1  0  0  0  0
 19 20  1  0  0  0  0
 20 21  2  0  0  0  0
 21 22  1  0  0  0  0
 21 27  1  0  0  0  0
 22 23  2  0  0  0  0
 22 25  1  0  0  0  0
 23 24  1  0  0  0  0
 25 26  2  0  0  0  0
 26 27  1  0  0  0  0
M  END
>  <CHROM.1>
63.64568214,-49.92080468,173.39290400,-47.81919381,-94.10457617,44.80646851
92.79298712,47.35958769,-29.21520427,-102.91620670,2.41524452,-0.04882592
-0.63030462

>  <Name>
ligand

>  <RI>
0

>  <Rbt.Current_Directory>
/home/itssahil/PROJECTS/Mol_Feturizer/New_Systems/rnas/4L81

>  <Rbt.Executable>
rbdock ($Id: //depot/dev/client3/rdock/2013.1/src/exe/rbdock.cxx#4 $)

>  <Rbt.Library>
libRbt.so (2013.1, Build901 2013/11/27)

>  <Rbt.Parameter_File>
/export/apps/rDock/src/rDock_2013.1_src/data/scripts/dock_solv.prm

>  <Rbt.Receptor>
prm/pocket_docking_2.prm

>  <SCORE>
-15.9604

>  <SCORE.INTER>
-15.2665

>  <SCORE.INTER.CONST>
1

>  <SCORE.INTER.POLAR>
0

>  <SCORE.INTER.ROT>
7

>  <SCORE.INTER.SOLV>
15.7639

>  <SCORE.INTER.VDW>
-23.699

>  <SCORE.INTER.norm>
-0.565426

>  <SCORE.INTRA>
-0.708087

>  <SCORE.INTRA.DIHEDRAL>
-0.740228

>  <SCORE.INTRA.DIHEDRAL.0>
8.34559

>  <SCORE.INTRA.POLAR>
0

>  <SCORE.INTRA.POLAR.0>
0

>  <SCORE.INTRA.REPUL>
0

>  <SCORE.INTRA.REPUL.0>
0

>  <SCORE.INTRA.SOLV>
-0.154627

>  <SCORE.INTRA.SOLV.lig_0>
-48.829

>  <SCORE.INTRA.VDW>
-0.26066

>  <SCORE.INTRA.VDW.0>
-1.77092

>  <SCORE.INTRA.norm>
-0.0262254

>  <SCORE.RESTR>
0.0141929

>  <SCORE.RESTR.CAVITY>
0.0141929

>  <SCORE.RESTR.norm>
0.000525664

>  <SCORE.SYSTEM>
0

>  <SCORE.SYSTEM.CONST>
0

>  <SCORE.SYSTEM.DIHEDRAL>
0

>  <SCORE.SYSTEM.SOLV>
0

>  <SCORE.SYSTEM.norm>
0

>  <SCORE.heavy>
27

>  <SCORE.norm>
-0.591125

>  <RMSD>
0.842

$$$$
ligand
 OpenBabel11021811503D
libRbt.so/2013.1/901 2013/11/27
 27 29  0  0  0  0  0  0  0  0999 V2000
   46.3583  -25.8804 -103.1546 N   0  0  0  0  0  0  0  0  0  0  0  0
   46.0895  -26.0995 -104.5802 C   0  0  2  0  0  0  0  0  0  0  0  0
   44.6528  -26.5420 -104.7614 C   0  0  0  0  0  0  0  0  0  0  0  0
   43.9155  -25.9379 -105.5257 O   0  0  0  0  0  0  0  0  0  0  0  0
   47.0167  -27.1735 -105.1652 C   0  0  0  0  0  0  0  0  0  0  0  0
   48.4773  -26.7893 -104.9757 C   0  0  0  0  0  0  0  0  0  0  0  0
   49.0610  -26.9857 -103.2482 S   0  0  2  0  0  0  0  0  0  0  0  0
   50.6007  -26.0133 -103.1917 C   0  0  0  0  0  0  0  0  0  0  0  0
   49.7654  -28.6158 -103.4833 C   0  0  0  0  0  0  0  0  0  0  0  0
   50.2727  -29.2456 -102.2132 C   0  0  1  0  0  0  0  0  0  0  0  0
   49.3271  -28.9570 -101.1694 O   0  0  0  0  0  0  0  0  0  0  0  0
   50.1561  -30.6889 -102.4975 C   0  0  1  0  0  0  0  0  0  0  0  0
   51.4199  -31.1974 -102.9214 O   0  0  0  0  0  0  0  0  0  0  0  0
   49.8010  -31.2544 -101.1572 C   0  0  1  0  0  0  0  0  0  0  0  0
   50.9958  -31.5441 -100.4022 O   0  0  0  0  0  0  0  0  0  0  0  0
   48.9711  -30.1532 -100.4315 C   0  0  2  0  0  0  0  0  0  0  0  0
   44.2305  -27.5219 -104.1730 O   0  0  0  0  0  0  0  0  0  0  0  0
   44.6134  -31.8782 -102.9282 N   0  0  0  0  0  0  0  0  0  0  0  0
   45.9041  -32.0364 -103.3115 C   0  0  0  0  0  0  0  0  0  0  0  0
   46.9286  -31.5825 -102.5596 N   0  0  0  0  0  0  0  0  0  0  0  0
   46.6968  -30.8758 -101.4414 C   0  0  0  0  0  0  0  0  0  0  0  0
   45.3364  -30.6479 -101.0173 C   0  0  0  0  0  0  0  0  0  0  0  0
   44.2848  -31.1929 -101.8126 C   0  0  0  0  0  0  0  0  0  0  0  0
   42.9617  -31.0211 -101.4599 N   0  0  0  0  0  0  0  0  0  0  0  0
   45.3854  -29.9230  -99.8935 N   0  0  0  0  0  0  0  0  0  0  0  0
   46.6286  -29.6825  -99.6002 C   0  0  0  0  0  0  0  0  0  0  0  0
   47.4845  -30.2511 -100.5144 N   0  0  0  0  0  0  0  0  0  0  0  0
  2  1  1  1  0  0  0
  2  3  1  0  0  0  0
  2  5  1  0  0  0  0
  3  4  1  0  0  0  0
  3 17  1  0  0  0  0
  5  6  1  0  0  0  0
  7  6  1  6  0  0  0
  7  8  1  0  0  0  0
  7  9  1  0  0  0  0
 10  9  1  6  0  0  0
 10 11  1  0  0  0  0
 10 12  1  0  0  0  0
 11 16  1  0  0  0  0
 12 13  1  1  0  0  0
 12 14  1  0  0  0  0
 14 15  1  1  0  0  0
 14 16  1  0  0  0  0
 16 27  1  6  0  0  0
 18 19  2  0  0  0  0
 18 23  1  0  0  0  0
 19 20  1  0  0  0  0
 20 21  2  0  0  0  0
 21 22  1  0  0  0  0
 21 27  1  0  0  0  0
 22 23  2  0  0  0  0
 22 25  1  0  0  0  0
 23 24  1  0  0  0  0
 25 26  2  0  0  0  0
 26 27  1  0  0  0  0
M  END
>  <CHROM.1>
125.81301234,-57.78934749,74.28403119,-163.39252033,-174.47771606,40.74699128
89.97998111,47.44646508,-29.09780253,-102.56831989,-2.35187912,0.08984821
2.55475759

>  <Name>
ligand

>  <RI>
0

>  <Rbt.Current_Directory>
/home/itssahil/PROJECTS/Mol_Feturizer/New_Systems/rnas/4L81

>  <Rbt.Executable>
rbdock ($Id: //depot/dev/client3/rdock/2013.1/src/exe/rbdock.cxx#4 $)

>  <Rbt.Library>
libRbt.so (2013.1, Build901 2013/11/27)

>  <Rbt.Parameter_File>
/export/apps/rDock/src/rDock_2013.1_src/data/scripts/dock_solv.prm

>  <Rbt.Receptor>
prm/pocket_docking_2.prm

>  <SCORE>
-16.1826

>  <SCORE.INTER>
-15.1226

>  <SCORE.INTER.CONST>
1

>  <SCORE.INTER.POLAR>
0

>  <SCORE.INTER.ROT>
7

>  <SCORE.INTER.SOLV>
18.9901

>  <SCORE.INTER.VDW>
-24.6784

>  <SCORE.INTER.norm>
-0.560096

>  <SCORE.INTRA>
-1.06005

>  <SCORE.INTRA.DIHEDRAL>
-1.04196

>  <SCORE.INTRA.DIHEDRAL.0>
8.34559

>  <SCORE.INTRA.POLAR>
0

>  <SCORE.INTRA.POLAR.0>
0

>  <SCORE.INTRA.REPUL>
0

>  <SCORE.INTRA.REPUL.0>
0

>  <SCORE.INTRA.SOLV>
1.31281

>  <SCORE.INTRA.SOLV.lig_0>
-48.829

>  <SCORE.INTRA.VDW>
-1.19548

>  <SCORE.INTRA.VDW.0>
-1.77092

>  <SCORE.INTRA.norm>
-0.0392612

>  <SCORE.RESTR>
0

>  <SCORE.RESTR.CAVITY>
0

>  <SCORE.RESTR.norm>
0

>  <SCORE.SYSTEM>
0

>  <SCORE.SYSTEM.CONST>
0

>  <SCORE.SYSTEM.DIHEDRAL>
0

>  <SCORE.SYSTEM.SOLV>
0

>  <SCORE.SYSTEM.norm>
0

>  <SCORE.heavy>
27

>  <SCORE.norm>
-0.599357

>  <RMSD>
0.885

$$$$
ligand
 OpenBabel11021811503D
libRbt.so/2013.1/901 2013/11/27
 27 29  0  0  0  0  0  0  0  0999 V2000
   44.8581  -27.9432 -103.5888 N   0  0  0  0  0  0  0  0  0  0  0  0
   45.8069  -26.8789 -103.9346 C   0  0  2  0  0  0  0  0  0  0  0  0
   45.6200  -26.4870 -105.3852 C   0  0  0  0  0  0  0  0  0  0  0  0
   45.0705  -27.2528 -106.1626 O   0  0  0  0  0  0  0  0  0  0  0  0
   47.2577  -27.3343 -103.7269 C   0  0  0  0  0  0  0  0  0  0  0  0
   47.8999  -26.5843 -102.5685 C   0  0  0  0  0  0  0  0  0  0  0  0
   49.7221  -26.4406 -102.7183 S   0  0  2  0  0  0  0  0  0  0  0  0
   49.9682  -25.6495 -104.3410 C   0  0  0  0  0  0  0  0  0  0  0  0
   49.9963  -28.1463 -103.1916 C   0  0  0  0  0  0  0  0  0  0  0  0
   50.3271  -29.0506 -102.0341 C   0  0  1  0  0  0  0  0  0  0  0  0
   49.2980  -28.8926 -101.0426 O   0  0  0  0  0  0  0  0  0  0  0  0
   50.1491  -30.3965 -102.6125 C   0  0  1  0  0  0  0  0  0  0  0  0
   51.4153  -30.9162 -103.0150 O   0  0  0  0  0  0  0  0  0  0  0  0
   49.6209  -31.1799 -101.4508 C   0  0  1  0  0  0  0  0  0  0  0  0
   50.7095  -31.7089 -100.6657 O   0  0  0  0  0  0  0  0  0  0  0  0
   48.7915  -30.1755 -100.5956 C   0  0  2  0  0  0  0  0  0  0  0  0
   45.9854  -25.3939 -105.7808 O   0  0  0  0  0  0  0  0  0  0  0  0
   44.4578  -32.1179 -102.9713 N   0  0  0  0  0  0  0  0  0  0  0  0
   45.7403  -32.5298 -103.1242 C   0  0  0  0  0  0  0  0  0  0  0  0
   46.7522  -31.9752 -102.4246 N   0  0  0  0  0  0  0  0  0  0  0  0
   46.5305  -30.9287 -101.6128 C   0  0  0  0  0  0  0  0  0  0  0  0
   45.1858  -30.4304 -101.4514 C   0  0  0  0  0  0  0  0  0  0  0  0
   44.1378  -31.0817 -102.1675 C   0  0  0  0  0  0  0  0  0  0  0  0
   42.8278  -30.6632 -102.0518 N   0  0  0  0  0  0  0  0  0  0  0  0
   45.2431  -29.3956 -100.6048 N   0  0  0  0  0  0  0  0  0  0  0  0
   46.4788  -29.2117 -100.2460 C   0  0  0  0  0  0  0  0  0  0  0  0
   47.3186  -30.1316 -100.8294 N   0  0  0  0  0  0  0  0  0  0  0  0
  2  1  1  6  0  0  0
  2  3  1  0  0  0  0
  2  5  1  0  0  0  0
  3  4  1  0  0  0  0
  3 17  1  0  0  0  0
  5  6  1  0  0  0  0
  7  6  1  6  0  0  0
  7  8  1  0  0  0  0
  7  9  1  0  0  0  0
 10  9  1  6  0  0  0
 10 11  1  0  0  0  0
 10 12  1  0  0  0  0
 11 16  1  0  0  0  0
 12 13  1  1  0  0  0
 12 14  1  0  0  0  0
 14 15  1  1  0  0  0
 14 16  1  0  0  0  0
 16 27  1  6  0  0  0
 18 19  2  0  0  0  0
 18 23  1  0  0  0  0
 19 20  1  0  0  0  0
 20 21  2  0  0  0  0
 21 22  1  0  0  0  0
 21 27  1  0  0  0  0
 22 23  2  0  0  0  0
 22 25  1  0  0  0  0
 23 24  1  0  0  0  0
 25 26  2  0  0  0  0
 26 27  1  0  0  0  0
M  END
>  <CHROM.1>
-20.46724387,-111.66653092,-152.91393300,55.70201235,-94.31781091,53.36491351
119.78732010,47.48315107,-29.03899259,-102.64663897,1.46358877,-0.19231094
-0.53228624

>  <Name>
ligand

>  <RI>
0

>  <Rbt.Current_Directory>
/home/itssahil/PROJECTS/Mol_Feturizer/New_Systems/rnas/4L81

>  <Rbt.Executable>
rbdock ($Id: //depot/dev/client3/rdock/2013.1/src/exe/rbdock.cxx#4 $)

>  <Rbt.Library>
libRbt.so (2013.1, Build901 2013/11/27)

>  <Rbt.Parameter_File>
/export/apps/rDock/src/rDock_2013.1_src/data/scripts/dock_solv.prm

>  <Rbt.Receptor>
prm/pocket_docking_2.prm

>  <SCORE>
-11.3738

>  <SCORE.INTER>
-13.5596

>  <SCORE.INTER.CONST>
1

>  <SCORE.INTER.POLAR>
0

>  <SCORE.INTER.ROT>
7

>  <SCORE.INTER.SOLV>
17.3534

>  <SCORE.INTER.VDW>
-23.0909

>  <SCORE.INTER.norm>
-0.502208

>  <SCORE.INTRA>
2.17969

>  <SCORE.INTRA.DIHEDRAL>
4.99789

>  <SCORE.INTRA.DIHEDRAL.0>
8.34559

>  <SCORE.INTRA.POLAR>
0

>  <SCORE.INTRA.POLAR.0>
0

>  <SCORE.INTRA.REPUL>
0

>  <SCORE.INTRA.REPUL.0>
0

>  <SCORE.INTRA.SOLV>
1.39881

>  <SCORE.INTRA.SOLV.lig_0>
-48.829

>  <SCORE.INTRA.VDW>
-1.01865

>  <SCORE.INTRA.VDW.0>
-1.77092

>  <SCORE.INTRA.norm>
0.0807294

>  <SCORE.RESTR>
0.00608946

>  <SCORE.RESTR.CAVITY>
0.00608946

>  <SCORE.RESTR.norm>
0.000225535

>  <SCORE.SYSTEM>
0

>  <SCORE.SYSTEM.CONST>
0

>  <SCORE.SYSTEM.DIHEDRAL>
0

>  <SCORE.SYSTEM.SOLV>
0

>  <SCORE.SYSTEM.norm>
0

>  <SCORE.heavy>
27

>  <SCORE.norm>
-0.421253

>  <RMSD>
0.890

$$$$
ligand
 OpenBabel11021811503D
libRbt.so/2013.1/901 2013/11/27
 27 29  0  0  0  0  0  0  0  0999 V2000
   46.0535  -28.3558 -104.7958 N   0  0  0  0  0  0  0  0  0  0  0  0
   45.4527  -27.2550 -104.0342 C   0  0  2  0  0  0  0  0  0  0  0  0
   44.7429  -26.3124 -104.9831 C   0  0  0  0  0  0  0  0  0  0  0  0
   43.5351  -26.3988 -105.1459 O   0  0  0  0  0  0  0  0  0  0  0  0
   46.5161  -26.4678 -103.2564 C   0  0  0  0  0  0  0  0  0  0  0  0
   47.6786  -26.0876 -104.1625 C   0  0  0  0  0  0  0  0  0  0  0  0
   49.3141  -26.2396 -103.3468 S   0  0  2  0  0  0  0  0  0  0  0  0
   50.5031  -25.8480 -104.6706 C   0  0  0  0  0  0  0  0  0  0  0  0
   49.3852  -28.0278 -103.4238 C   0  0  0  0  0  0  0  0  0  0  0  0
   49.8958  -28.6688 -102.1607 C   0  0  1  0  0  0  0  0  0  0  0  0
   48.9029  -28.4809 -101.1381 O   0  0  0  0  0  0  0  0  0  0  0  0
   49.8838  -30.1054 -102.4980 C   0  0  1  0  0  0  0  0  0  0  0  0
   51.1905  -30.5144 -102.8989 O   0  0  0  0  0  0  0  0  0  0  0  0
   49.5280  -30.7412 -101.1898 C   0  0  1  0  0  0  0  0  0  0  0  0
   50.7168  -30.9795 -100.4079 O   0  0  0  0  0  0  0  0  0  0  0  0
   48.6058  -29.7238 -100.4533 C   0  0  2  0  0  0  0  0  0  0  0  0
   45.3637  -25.4406 -105.5656 O   0  0  0  0  0  0  0  0  0  0  0  0
   44.4697  -31.9704 -102.9116 N   0  0  0  0  0  0  0  0  0  0  0  0
   45.7839  -32.0972 -103.2193 C   0  0  0  0  0  0  0  0  0  0  0  0
   46.7458  -31.5022 -102.4834 N   0  0  0  0  0  0  0  0  0  0  0  0
   46.4238  -30.6866 -101.4663 C   0  0  0  0  0  0  0  0  0  0  0  0
   45.0344  -30.4900 -101.1292 C   0  0  0  0  0  0  0  0  0  0  0  0
   44.0523  -31.1819 -101.8987 C   0  0  0  0  0  0  0  0  0  0  0  0
   42.7065  -31.0471 -101.6243 N   0  0  0  0  0  0  0  0  0  0  0  0
   44.9912  -29.6396 -100.0969 N   0  0  0  0  0  0  0  0  0  0  0  0
   46.2046  -29.2962  -99.7818 C   0  0  0  0  0  0  0  0  0  0  0  0
   47.1321  -29.9157 -100.5864 N   0  0  0  0  0  0  0  0  0  0  0  0
  2  1  1  6  0  0  0
  2  3  1  0  0  0  0
  2  5  1  0  0  0  0
  3  4  1  0  0  0  0
  3 17  1  0  0  0  0
  5  6  1  0  0  0  0
  7  6  1  6  0  0  0
  7  8  1  0  0  0  0
  7  9  1  0  0  0  0
 10  9  1  6  0  0  0
 10 11  1  0  0  0  0
 10 12  1  0  0  0  0
 11 16  1  0  0  0  0
 12 13  1  1  0  0  0
 12 14  1  0  0  0  0
 14 15  1  1  0  0  0
 14 16  1  0  0  0  0
 16 27  1  6  0  0  0
 18 19  2  0  0  0  0
 18 23  1  0  0  0  0
 19 20  1  0  0  0  0
 20 21  2  0  0  0  0
 21 22  1  0  0  0  0
 21 27  1  0  0  0  0
 22 23  2  0  0  0  0
 22 25  1  0  0  0  0
 23 24  1  0  0  0  0
 25 26  2  0  0  0  0
 26 27  1  0  0  0  0
M  END
>  <CHROM.1>
98.09606187,49.63093607,-140.26652511,176.07333202,-137.43837738,69.01840876
98.72346888,47.23417906,-28.82968491,-102.64262352,1.30642385,-0.14334822
-0.60128576

>  <Name>
ligand

>  <RI>
0

>  <Rbt.Current_Directory>
/home/itssahil/PROJECTS/Mol_Feturizer/New_Systems/rnas/4L81

>  <Rbt.Executable>
rbdock ($Id: //depot/dev/client3/rdock/2013.1/src/exe/rbdock.cxx#4 $)

>  <Rbt.Library>
libRbt.so (2013.1, Build901 2013/11/27)

>  <Rbt.Parameter_File>
/export/apps/rDock/src/rDock_2013.1_src/data/scripts/dock_solv.prm

>  <Rbt.Receptor>
prm/pocket_docking_2.prm

>  <SCORE>
-14.315

>  <SCORE.INTER>
-16.1391

>  <SCORE.INTER.CONST>
1

>  <SCORE.INTER.POLAR>
0

>  <SCORE.INTER.ROT>
7

>  <SCORE.INTER.SOLV>
16.3689

>  <SCORE.INTER.VDW>
-24.4823

>  <SCORE.INTER.norm>
-0.597743

>  <SCORE.INTRA>
1.58082

>  <SCORE.INTRA.DIHEDRAL>
4.04302

>  <SCORE.INTRA.DIHEDRAL.0>
8.34559

>  <SCORE.INTRA.POLAR>
0

>  <SCORE.INTRA.POLAR.0>
0

>  <SCORE.INTRA.REPUL>
0

>  <SCORE.INTRA.REPUL.0>
0

>  <SCORE.INTRA.SOLV>
0.584759

>  <SCORE.INTRA.SOLV.lig_0>
-48.829

>  <SCORE.INTRA.VDW>
-0.733068

>  <SCORE.INTRA.VDW.0>
-1.77092

>  <SCORE.INTRA.norm>
0.0585489

>  <SCORE.RESTR>
0.243271

>  <SCORE.RESTR.CAVITY>
0.243271

>  <SCORE.RESTR.norm>
0.00901005

>  <SCORE.SYSTEM>
0

>  <SCORE.SYSTEM.CONST>
0

>  <SCORE.SYSTEM.DIHEDRAL>
0

>  <SCORE.SYSTEM.SOLV>
0

>  <SCORE.SYSTEM.norm>
0

>  <SCORE.heavy>
27

>  <SCORE.norm>
-0.530184

>  <RMSD>
0.908

$$$$
ligand
 OpenBabel11021811503D
libRbt.so/2013.1/901 2013/11/27
 27 29  0  0  0  0  0  0  0  0999 V2000
   43.9739  -26.8411 -103.6337 N   0  0  0  0  0  0  0  0  0  0  0  0
   45.2740  -26.6002 -104.2696 C   0  0  2  0  0  0  0  0  0  0  0  0
   45.4031  -27.4712 -105.5014 C   0  0  0  0  0  0  0  0  0  0  0  0
   44.8943  -28.5818 -105.5248 O   0  0  0  0  0  0  0  0  0  0  0  0
   46.4315  -26.9187 -103.3135 C   0  0  0  0  0  0  0  0  0  0  0  0
   47.7251  -26.2792 -103.7976 C   0  0  0  0  0  0  0  0  0  0  0  0
   49.1110  -26.4562 -102.6095 S   0  0  2  0  0  0  0  0  0  0  0  0
   50.5079  -25.6306 -103.4381 C   0  0  0  0  0  0  0  0  0  0  0  0
   49.4938  -28.1535 -103.0351 C   0  0  0  0  0  0  0  0  0  0  0  0
   50.0162  -28.9649 -101.8793 C   0  0  1  0  0  0  0  0  0  0  0  0
   49.0491  -28.8944 -100.8179 O   0  0  0  0  0  0  0  0  0  0  0  0
   49.9657  -30.3441 -102.4018 C   0  0  1  0  0  0  0  0  0  0  0  0
   51.2545  -30.7214 -102.8835 O   0  0  0  0  0  0  0  0  0  0  0  0
   49.6232  -31.1397 -101.1805 C   0  0  1  0  0  0  0  0  0  0  0  0
   50.8224  -31.5014 -100.4646 O   0  0  0  0  0  0  0  0  0  0  0  0
   48.7390  -30.2108 -100.2954 C   0  0  2  0  0  0  0  0  0  0  0  0
   45.9856  -27.0597 -106.4895 O   0  0  0  0  0  0  0  0  0  0  0  0
   44.4867  -31.7055 -103.1030 N   0  0  0  0  0  0  0  0  0  0  0  0
   45.7871  -31.7495 -103.4838 C   0  0  0  0  0  0  0  0  0  0  0  0
   46.7830  -31.3760 -102.6533 N   0  0  0  0  0  0  0  0  0  0  0  0
   46.5090  -30.8608 -101.4437 C   0  0  0  0  0  0  0  0  0  0  0  0
   45.1355  -30.7570 -101.0132 C   0  0  0  0  0  0  0  0  0  0  0  0
   44.1170  -31.2150 -101.9010 C   0  0  0  0  0  0  0  0  0  0  0  0
   42.7839  -31.1541 -101.5490 N   0  0  0  0  0  0  0  0  0  0  0  0
   45.1412  -30.2134  -99.7904 N   0  0  0  0  0  0  0  0  0  0  0  0
   46.3696  -29.9706  -99.4421 C   0  0  0  0  0  0  0  0  0  0  0  0
   47.2590  -30.3555 -100.4181 N   0  0  0  0  0  0  0  0  0  0  0  0
  2  1  1  1  0  0  0
  2  3  1  0  0  0  0
  2  5  1  0  0  0  0
  3  4  1  0  0  0  0
  3 17  1  0  0  0  0
  5  6  1  0  0  0  0
  7  6  1  6  0  0  0
  7  8  1  0  0  0  0
  7  9  1  0  0  0  0
 10  9  1  6  0  0  0
 10 11  1  0  0  0  0
 10 12  1  0  0  0  0
 11 16  1  0  0  0  0
 12 13  1  1  0  0  0
 12 14  1  0  0  0  0
 14 15  1  1  0  0  0
 14 16  1  0  0  0  0
 16 27  1  6  0  0  0
 18 19  2  0  0  0  0
 18 23  1  0  0  0  0
 19 20  1  0  0  0  0
 20 21  2  0  0  0  0
 21 22  1  0  0  0  0
 21 27  1  0  0  0  0
 22 23  2  0  0  0  0
 22 25  1  0  0  0  0
 23 24  1  0  0  0  0
 25 26  2  0  0  0  0
 26 27  1  0  0  0  0
M  END
>  <CHROM.1>
-33.71300579,-162.55613899,173.48398095,179.45350579,-147.89158746,55.84956842
90.70167588,47.29601516,-29.12701200,-102.50217878,-2.86561982,0.23095136
2.49380770

>  <Name>
ligand

>  <RI>
0

>  <Rbt.Current_Directory>
/home/itssahil/PROJECTS/Mol_Feturizer/New_Systems/rnas/4L81

>  <Rbt.Executable>
rbdock ($Id: //depot/dev/client3/rdock/2013.1/src/exe/rbdock.cxx#4 $)

>  <Rbt.Library>
libRbt.so (2013.1, Build901 2013/11/27)

>  <Rbt.Parameter_File>
/export/apps/rDock/src/rDock_2013.1_src/data/scripts/dock_solv.prm

>  <Rbt.Receptor>
prm/pocket_docking_2.prm

>  <SCORE>
-16.3652

>  <SCORE.INTER>
-13.7521

>  <SCORE.INTER.CONST>
1

>  <SCORE.INTER.POLAR>
0

>  <SCORE.INTER.ROT>
7

>  <SCORE.INTER.SOLV>
23.3223

>  <SCORE.INTER.VDW>
-25.2088

>  <SCORE.INTER.norm>
-0.509336

>  <SCORE.INTRA>
-2.61313

>  <SCORE.INTRA.DIHEDRAL>
-0.157623

>  <SCORE.INTRA.DIHEDRAL.0>
8.34559

>  <SCORE.INTRA.POLAR>
0

>  <SCORE.INTRA.POLAR.0>
0

>  <SCORE.INTRA.REPUL>
0

>  <SCORE.INTRA.REPUL.0>
0

>  <SCORE.INTRA.SOLV>
-1.24408

>  <SCORE.INTRA.SOLV.lig_0>
-48.829

>  <SCORE.INTRA.VDW>
-1.91228

>  <SCORE.INTRA.VDW.0>
-1.77092

>  <SCORE.INTRA.norm>
-0.0967826

>  <SCORE.RESTR>
0

>  <SCORE.RESTR.CAVITY>
0

>  <SCORE.RESTR.norm>
0

>  <SCORE.SYSTEM>
0

>  <SCORE.SYSTEM.CONST>
0

>  <SCORE.SYSTEM.DIHEDRAL>
0

>  <SCORE.SYSTEM.SOLV>
0

>  <SCORE.SYSTEM.norm>
0

>  <SCORE.heavy>
27

>  <SCORE.norm>
-0.606119

>  <RMSD>
0.913

$$$$
ligand
 OpenBabel11021811503D
libRbt.so/2013.1/901 2013/11/27
 27 29  0  0  0  0  0  0  0  0999 V2000
   44.8776  -28.2163 -103.5655 N   0  0  0  0  0  0  0  0  0  0  0  0
   45.7550  -27.1404 -104.0403 C   0  0  2  0  0  0  0  0  0  0  0  0
   44.9924  -26.2541 -105.0024 C   0  0  0  0  0  0  0  0  0  0  0  0
   43.7804  -26.3642 -105.1103 O   0  0  0  0  0  0  0  0  0  0  0  0
   46.9907  -27.7020 -104.7565 C   0  0  0  0  0  0  0  0  0  0  0  0
   48.1781  -26.7617 -104.6051 C   0  0  0  0  0  0  0  0  0  0  0  0
   49.0082  -26.8978 -102.9754 S   0  0  2  0  0  0  0  0  0  0  0  0
   50.4692  -25.8211 -103.1355 C   0  0  0  0  0  0  0  0  0  0  0  0
   49.7852  -28.4781 -103.3036 C   0  0  0  0  0  0  0  0  0  0  0  0
   50.2723  -29.1825 -102.0653 C   0  0  1  0  0  0  0  0  0  0  0  0
   49.2929  -28.9855 -101.0314 O   0  0  0  0  0  0  0  0  0  0  0  0
   50.1958  -30.6052 -102.4498 C   0  0  1  0  0  0  0  0  0  0  0  0
   51.4816  -31.0574 -102.8714 O   0  0  0  0  0  0  0  0  0  0  0  0
   49.8178  -31.2680 -101.1614 C   0  0  1  0  0  0  0  0  0  0  0  0
   50.9982  -31.5840 -100.3944 O   0  0  0  0  0  0  0  0  0  0  0  0
   48.9443  -30.2363 -100.3865 C   0  0  2  0  0  0  0  0  0  0  0  0
   45.5754  -25.4031 -105.6511 O   0  0  0  0  0  0  0  0  0  0  0  0
   44.6973  -31.9555 -103.0708 N   0  0  0  0  0  0  0  0  0  0  0  0
   46.0017  -32.0765 -103.4199 C   0  0  0  0  0  0  0  0  0  0  0  0
   46.9943  -31.6297 -102.6224 N   0  0  0  0  0  0  0  0  0  0  0  0
   46.7156  -30.9661 -101.4887 C   0  0  0  0  0  0  0  0  0  0  0  0
   45.3390  -30.7781 -101.0986 C   0  0  0  0  0  0  0  0  0  0  0  0
   44.3224  -31.3150 -101.9433 C   0  0  0  0  0  0  0  0  0  0  0  0
   42.9862  -31.1800 -101.6254 N   0  0  0  0  0  0  0  0  0  0  0  0
   45.3404  -30.0913  -99.9501 N   0  0  0  0  0  0  0  0  0  0  0  0
   46.5694  -29.8379  -99.6113 C   0  0  0  0  0  0  0  0  0  0  0  0
   47.4631  -30.3590 -100.5177 N   0  0  0  0  0  0  0  0  0  0  0  0
  2  1  1  6  0  0  0
  2  3  1  0  0  0  0
  2  5  1  0  0  0  0
  3  4  1  0  0  0  0
  3 17  1  0  0  0  0
  5  6  1  0  0  0  0
  7  6  1  6  0  0  0
  7  8  1  0  0  0  0
  7  9  1  0  0  0  0
 10  9  1  6  0  0  0
 10 11  1  0  0  0  0
 10 12  1  0  0  0  0
 11 16  1  0  0  0  0
 12 13  1  1  0  0  0
 12 14  1  0  0  0  0
 14 15  1  1  0  0  0
 14 16  1  0  0  0  0
 16 27  1  6  0  0  0
 18 19  2  0  0  0  0
 18 23  1  0  0  0  0
 19 20  1  0  0  0  0
 20 21  2  0  0  0  0
 21 22  1  0  0  0  0
 21 27  1  0  0  0  0
 22 23  2  0  0  0  0
 22 25  1  0  0  0  0
 23 24  1  0  0  0  0
 25 26  2  0  0  0  0
 26 27  1  0  0  0  0
M  END
>  <CHROM.1>
11.45798314,-150.51774462,78.99966236,174.02915327,-163.21696081,39.56530193
91.94585183,47.43089471,-29.16855388,-102.56820838,2.30455114,-0.14293052
-0.58237391

>  <Name>
ligand

>  <RI>
0

>  <Rbt.Current_Directory>
/home/itssahil/PROJECTS/Mol_Feturizer/New_Systems/rnas/4L81

>  <Rbt.Executable>
rbdock ($Id: //depot/dev/client3/rdock/2013.1/src/exe/rbdock.cxx#4 $)

>  <Rbt.Library>
libRbt.so (2013.1, Build901 2013/11/27)

>  <Rbt.Parameter_File>
/export/apps/rDock/src/rDock_2013.1_src/data/scripts/dock_solv.prm

>  <Rbt.Receptor>
prm/pocket_docking_2.prm

>  <SCORE>
-16.6079

>  <SCORE.INTER>
-16.119

>  <SCORE.INTER.CONST>
1

>  <SCORE.INTER.POLAR>
0

>  <SCORE.INTER.ROT>
7

>  <SCORE.INTER.SOLV>
16.9836

>  <SCORE.INTER.VDW>
-24.6738

>  <SCORE.INTER.norm>
-0.597

>  <SCORE.INTRA>
-0.494446

>  <SCORE.INTRA.DIHEDRAL>
1.83982

>  <SCORE.INTRA.DIHEDRAL.0>
8.34559

>  <SCORE.INTRA.POLAR>
0

>  <SCORE.INTRA.POLAR.0>
0

>  <SCORE.INTRA.REPUL>
0

>  <SCORE.INTRA.REPUL.0>
0

>  <SCORE.INTRA.SOLV>
0.402168

>  <SCORE.INTRA.SOLV.lig_0>
-48.829

>  <SCORE.INTRA.VDW>
-1.61544

>  <SCORE.INTRA.VDW.0>
-1.77092

>  <SCORE.INTRA.norm>
-0.0183128

>  <SCORE.RESTR>
0.00557877

>  <SCORE.RESTR.CAVITY>
0.00557877

>  <SCORE.RESTR.norm>
0.000206621

>  <SCORE.SYSTEM>
0

>  <SCORE.SYSTEM.CONST>
0

>  <SCORE.SYSTEM.DIHEDRAL>
0

>  <SCORE.SYSTEM.SOLV>
0

>  <SCORE.SYSTEM.norm>
0

>  <SCORE.heavy>
27

>  <SCORE.norm>
-0.615106

>  <RMSD>
0.924

$$$$
ligand
 OpenBabel11021811503D
libRbt.so/2013.1/901 2013/11/27
 27 29  0  0  0  0  0  0  0  0999 V2000
   44.8802  -27.2931 -103.6382 N   0  0  0  0  0  0  0  0  0  0  0  0
   45.5279  -26.0874 -104.1669 C   0  0  2  0  0  0  0  0  0  0  0  0
   45.7482  -26.2442 -105.6567 C   0  0  0  0  0  0  0  0  0  0  0  0
   45.7426  -25.2635 -106.3853 O   0  0  0  0  0  0  0  0  0  0  0  0
   46.8819  -25.8373 -103.4890 C   0  0  0  0  0  0  0  0  0  0  0  0
   47.7478  -27.0884 -103.5314 C   0  0  0  0  0  0  0  0  0  0  0  0
   49.4371  -26.8245 -102.8679 S   0  0  2  0  0  0  0  0  0  0  0  0
   50.2973  -25.9283 -104.2008 C   0  0  0  0  0  0  0  0  0  0  0  0
   50.0251  -28.4803 -103.2162 C   0  0  0  0  0  0  0  0  0  0  0  0
   50.4769  -29.2326 -101.9928 C   0  0  1  0  0  0  0  0  0  0  0  0
   49.4908  -29.0366 -100.9651 O   0  0  0  0  0  0  0  0  0  0  0  0
   50.3651  -30.6412 -102.4181 C   0  0  1  0  0  0  0  0  0  0  0  0
   51.6427  -31.1179 -102.8375 O   0  0  0  0  0  0  0  0  0  0  0  0
   49.9528  -31.3287 -101.1534 C   0  0  1  0  0  0  0  0  0  0  0  0
   51.1143  -31.6994 -100.3821 O   0  0  0  0  0  0  0  0  0  0  0  0
   49.0992  -30.2945 -100.3598 C   0  0  2  0  0  0  0  0  0  0  0  0
   45.9654  -27.3434 -106.1357 O   0  0  0  0  0  0  0  0  0  0  0  0
   44.8377  -31.9418 -103.0661 N   0  0  0  0  0  0  0  0  0  0  0  0
   46.1423  -32.1154 -103.3910 C   0  0  0  0  0  0  0  0  0  0  0  0
   47.1374  -31.6809 -102.5897 N   0  0  0  0  0  0  0  0  0  0  0  0
   46.8641  -30.9786 -101.4781 C   0  0  0  0  0  0  0  0  0  0  0  0
   45.4889  -30.7346 -101.1152 C   0  0  0  0  0  0  0  0  0  0  0  0
   44.4676  -31.2595 -101.9617 C   0  0  0  0  0  0  0  0  0  0  0  0
   43.1321  -31.0717 -101.6688 N   0  0  0  0  0  0  0  0  0  0  0  0
   45.4961  -30.0180  -99.9850 N   0  0  0  0  0  0  0  0  0  0  0  0
   46.7276  -29.7968  -99.6332 C   0  0  0  0  0  0  0  0  0  0  0  0
   47.6168  -30.3712 -100.5114 N   0  0  0  0  0  0  0  0  0  0  0  0
  2  1  1  1  0  0  0
  2  3  1  0  0  0  0
  2  5  1  0  0  0  0
  3  4  1  0  0  0  0
  3 17  1  0  0  0  0
  5  6  1  0  0  0  0
  7  6  1  6  0  0  0
  7  8  1  0  0  0  0
  7  9  1  0  0  0  0
 10  9  1  6  0  0  0
 10 11  1  0  0  0  0
 10 12  1  0  0  0  0
 11 16  1  0  0  0  0
 12 13  1  1  0  0  0
 12 14  1  0  0  0  0
 14 15  1  1  0  0  0
 14 16  1  0  0  0  0
 16 27  1  6  0  0  0
 18 19  2  0  0  0  0
 18 23  1  0  0  0  0
 19 20  1  0  0  0  0
 20 21  2  0  0  0  0
 21 22  1  0  0  0  0
 21 27  1  0  0  0  0
 22 23  2  0  0  0  0
 22 25  1  0  0  0  0
 23 24  1  0  0  0  0
 25 26  2  0  0  0  0
 26 27  1  0  0  0  0
M  END
>  <CHROM.1>
149.87125339,51.33873136,175.05055206,-76.33106127,-120.22851488,45.22782109
95.07977081,47.65188914,-29.08603816,-102.60476526,1.96570904,-0.14200551
-0.60229905

>  <Name>
ligand

>  <RI>
0

>  <Rbt.Current_Directory>
/home/itssahil/PROJECTS/Mol_Feturizer/New_Systems/rnas/4L81

>  <Rbt.Executable>
rbdock ($Id: //depot/dev/client3/rdock/2013.1/src/exe/rbdock.cxx#4 $)

>  <Rbt.Library>
libRbt.so (2013.1, Build901 2013/11/27)

>  <Rbt.Parameter_File>
/export/apps/rDock/src/rDock_2013.1_src/data/scripts/dock_solv.prm

>  <Rbt.Receptor>
prm/pocket_docking_4.prm

>  <SCORE>
-17.7166

>  <SCORE.INTER>
-16.4411

>  <SCORE.INTER.CONST>
1

>  <SCORE.INTER.POLAR>
0

>  <SCORE.INTER.ROT>
7

>  <SCORE.INTER.SOLV>
18.4675

>  <SCORE.INTER.VDW>
-25.3832

>  <SCORE.INTER.norm>
-0.608929

>  <SCORE.INTRA>
-1.2755

>  <SCORE.INTRA.DIHEDRAL>
0.331748

>  <SCORE.INTRA.DIHEDRAL.0>
8.34559

>  <SCORE.INTRA.POLAR>
0

>  <SCORE.INTRA.POLAR.0>
0

>  <SCORE.INTRA.REPUL>
0

>  <SCORE.INTRA.REPUL.0>
0

>  <SCORE.INTRA.SOLV>
-0.505332

>  <SCORE.INTRA.SOLV.lig_0>
-48.829

>  <SCORE.INTRA.VDW>
-1.18871

>  <SCORE.INTRA.VDW.0>
-1.77092

>  <SCORE.INTRA.norm>
-0.0472407

>  <SCORE.RESTR>
0

>  <SCORE.RESTR.CAVITY>
0

>  <SCORE.RESTR.norm>
0

>  <SCORE.SYSTEM>
0

>  <SCORE.SYSTEM.CONST>
0

>  <SCORE.SYSTEM.DIHEDRAL>
0

>  <SCORE.SYSTEM.SOLV>
0

>  <SCORE.SYSTEM.norm>
0

>  <SCORE.heavy>
27

>  <SCORE.norm>
-0.656169

>  <RMSD>
0.944

$$$$
ligand
 OpenBabel11021811503D
libRbt.so/2013.1/901 2013/11/27
 27 29  0  0  0  0  0  0  0  0999 V2000
   47.3882  -27.9436 -104.8698 N   0  0  0  0  0  0  0  0  0  0  0  0
   46.6232  -27.0878 -103.9559 C   0  0  2  0  0  0  0  0  0  0  0  0
   45.3597  -26.6161 -104.6442 C   0  0  0  0  0  0  0  0  0  0  0  0
   44.2970  -26.6108 -104.0414 O   0  0  0  0  0  0  0  0  0  0  0  0
   47.4393  -25.8622 -103.5232 C   0  0  0  0  0  0  0  0  0  0  0  0
   48.4155  -26.2262 -102.4135 C   0  0  0  0  0  0  0  0  0  0  0  0
   50.1130  -26.5613 -103.0215 S   0  0  2  0  0  0  0  0  0  0  0  0
   50.0552  -26.0741 -104.7761 C   0  0  0  0  0  0  0  0  0  0  0  0
   49.8878  -28.3281 -103.2117 C   0  0  0  0  0  0  0  0  0  0  0  0
   50.3683  -29.1307 -102.0320 C   0  0  1  0  0  0  0  0  0  0  0  0
   49.4186  -28.9603 -100.9661 O   0  0  0  0  0  0  0  0  0  0  0  0
   50.2233  -30.5211 -102.5045 C   0  0  1  0  0  0  0  0  0  0  0  0
   51.4801  -30.9982 -102.9825 O   0  0  0  0  0  0  0  0  0  0  0  0
   49.8425  -31.2495 -101.2529 C   0  0  1  0  0  0  0  0  0  0  0  0
   51.0230  -31.6631 -100.5340 O   0  0  0  0  0  0  0  0  0  0  0  0
   49.0293  -30.2346 -100.3946 C   0  0  2  0  0  0  0  0  0  0  0  0
   45.3981  -26.2076 -105.7916 O   0  0  0  0  0  0  0  0  0  0  0  0
   44.6590  -31.8782 -102.9239 N   0  0  0  0  0  0  0  0  0  0  0  0
   45.9500  -32.0866 -103.2815 C   0  0  0  0  0  0  0  0  0  0  0  0
   46.9764  -31.6480 -102.5231 N   0  0  0  0  0  0  0  0  0  0  0  0
   46.7495  -30.9079 -101.4258 C   0  0  0  0  0  0  0  0  0  0  0  0
   45.3905  -30.6265 -101.0303 C   0  0  0  0  0  0  0  0  0  0  0  0
   44.3348  -31.1564 -101.8304 C   0  0  0  0  0  0  0  0  0  0  0  0
   43.0124  -30.9340 -101.5043 N   0  0  0  0  0  0  0  0  0  0  0  0
   45.4447  -29.8770  -99.9230 N   0  0  0  0  0  0  0  0  0  0  0  0
   46.6901  -29.6695  -99.6143 C   0  0  0  0  0  0  0  0  0  0  0  0
   47.5419  -30.2868 -100.5003 N   0  0  0  0  0  0  0  0  0  0  0  0
  2  1  1  6  0  0  0
  2  3  1  0  0  0  0
  2  5  1  0  0  0  0
  3  4  1  0  0  0  0
  3 17  1  0  0  0  0
  5  6  1  0  0  0  0
  7  6  1  1  0  0  0
  7  8  1  0  0  0  0
  7  9  1  0  0  0  0
 10  9  1  6  0  0  0
 10 11  1  0  0  0  0
 10 12  1  0  0  0  0
 11 16  1  0  0  0  0
 12 13  1  1  0  0  0
 12 14  1  0  0  0  0
 14 15  1  1  0  0  0
 14 16  1  0  0  0  0
 16 27  1  6  0  0  0
 18 19  2  0  0  0  0
 18 23  1  0  0  0  0
 19 20  1  0  0  0  0
 20 21  2  0  0  0  0
 21 22  1  0  0  0  0
 21 27  1  0  0  0  0
 22 23  2  0  0  0  0
 22 25  1  0  0  0  0
 23 24  1  0  0  0  0
 25 26  2  0  0  0  0
 26 27  1  0  0  0  0
M  END
>  <CHROM.1>
136.95929723,-80.12083927,97.50576259,8.39797355,-95.87151624,74.27759893
98.91387049,47.70277101,-29.05975059,-102.48891253,1.12089361,-0.10466188
-0.56297557

>  <Name>
ligand

>  <RI>
0

>  <Rbt.Current_Directory>
/home/itssahil/PROJECTS/Mol_Feturizer/New_Systems/rnas/4L81

>  <Rbt.Executable>
rbdock ($Id: //depot/dev/client3/rdock/2013.1/src/exe/rbdock.cxx#4 $)

>  <Rbt.Library>
libRbt.so (2013.1, Build901 2013/11/27)

>  <Rbt.Parameter_File>
/export/apps/rDock/src/rDock_2013.1_src/data/scripts/dock_solv.prm

>  <Rbt.Receptor>
prm/pocket_docking_5.prm

>  <SCORE>
-13.4091

>  <SCORE.INTER>
-17.8396

>  <SCORE.INTER.CONST>
1

>  <SCORE.INTER.POLAR>
0

>  <SCORE.INTER.ROT>
7

>  <SCORE.INTER.SOLV>
15.5816

>  <SCORE.INTER.VDW>
-25.3536

>  <SCORE.INTER.norm>
-0.660727

>  <SCORE.INTRA>
4.43051

>  <SCORE.INTRA.DIHEDRAL>
6.25296

>  <SCORE.INTRA.DIHEDRAL.0>
8.34559

>  <SCORE.INTRA.POLAR>
0

>  <SCORE.INTRA.POLAR.0>
0

>  <SCORE.INTRA.REPUL>
0

>  <SCORE.INTRA.REPUL.0>
0

>  <SCORE.INTRA.SOLV>
2.47687

>  <SCORE.INTRA.SOLV.lig_0>
-48.829

>  <SCORE.INTRA.VDW>
0.0656012

>  <SCORE.INTRA.VDW.0>
-1.77092

>  <SCORE.INTRA.norm>
0.164093

>  <SCORE.RESTR>
0

>  <SCORE.RESTR.CAVITY>
0

>  <SCORE.RESTR.norm>
0

>  <SCORE.SYSTEM>
0

>  <SCORE.SYSTEM.CONST>
0

>  <SCORE.SYSTEM.DIHEDRAL>
0

>  <SCORE.SYSTEM.SOLV>
0

>  <SCORE.SYSTEM.norm>
0

>  <SCORE.heavy>
27

>  <SCORE.norm>
-0.496634

>  <RMSD>
0.947

$$$$
ligand
 OpenBabel11021811503D
libRbt.so/2013.1/901 2013/11/27
 27 29  0  0  0  0  0  0  0  0999 V2000
   44.7802  -27.8702 -103.8727 N   0  0  0  0  0  0  0  0  0  0  0  0
   45.1002  -26.4615 -104.1293 C   0  0  2  0  0  0  0  0  0  0  0  0
   45.2491  -26.2406 -105.6198 C   0  0  0  0  0  0  0  0  0  0  0  0
   45.0591  -25.1328 -106.0988 O   0  0  0  0  0  0  0  0  0  0  0  0
   46.4048  -26.0492 -103.4340 C   0  0  0  0  0  0  0  0  0  0  0  0
   47.5181  -27.0411 -103.7399 C   0  0  0  0  0  0  0  0  0  0  0  0
   49.0223  -26.7795 -102.7239 S   0  0  2  0  0  0  0  0  0  0  0  0
   50.0507  -25.6701 -103.7393 C   0  0  0  0  0  0  0  0  0  0  0  0
   49.7933  -28.3411 -103.1432 C   0  0  0  0  0  0  0  0  0  0  0  0
   50.2890  -29.1121 -101.9487 C   0  0  1  0  0  0  0  0  0  0  0  0
   49.3196  -28.9675 -100.8969 O   0  0  0  0  0  0  0  0  0  0  0  0
   50.2039  -30.5120 -102.4079 C   0  0  1  0  0  0  0  0  0  0  0  0
   51.4842  -30.9451 -102.8647 O   0  0  0  0  0  0  0  0  0  0  0  0
   49.8351  -31.2415 -101.1533 C   0  0  1  0  0  0  0  0  0  0  0  0
   51.0211  -31.6016 -100.4150 O   0  0  0  0  0  0  0  0  0  0  0  0
   48.9722  -30.2499 -100.3166 C   0  0  2  0  0  0  0  0  0  0  0  0
   45.5913  -27.1559 -106.3479 O   0  0  0  0  0  0  0  0  0  0  0  0
   44.6962  -31.8439 -103.0320 N   0  0  0  0  0  0  0  0  0  0  0  0
   45.9973  -31.9569 -103.3959 C   0  0  0  0  0  0  0  0  0  0  0  0
   46.9983  -31.5460 -102.5896 N   0  0  0  0  0  0  0  0  0  0  0  0
   46.7316  -30.9261 -101.4285 C   0  0  0  0  0  0  0  0  0  0  0  0
   45.3590  -30.7474 -101.0205 C   0  0  0  0  0  0  0  0  0  0  0  0
   44.3332  -31.2464 -101.8773 C   0  0  0  0  0  0  0  0  0  0  0  0
   43.0002  -31.1180 -101.5437 N   0  0  0  0  0  0  0  0  0  0  0  0
   45.3725  -30.1061  -99.8460 N   0  0  0  0  0  0  0  0  0  0  0  0
   46.6053  -29.8716  -99.5074 C   0  0  0  0  0  0  0  0  0  0  0  0
   47.4894  -30.3607 -100.4406 N   0  0  0  0  0  0  0  0  0  0  0  0
  2  1  1  6  0  0  0
  2  3  1  0  0  0  0
  2  5  1  0  0  0  0
  3  4  1  0  0  0  0
  3 17  1  0  0  0  0
  5  6  1  0  0  0  0
  7  6  1  6  0  0  0
  7  8  1  0  0  0  0
  7  9  1  0  0  0  0
 10  9  1  6  0  0  0
 10 11  1  0  0  0  0
 10 12  1  0  0  0  0
 11 16  1  0  0  0  0
 12 13  1  1  0  0  0
 12 14  1  0  0  0  0
 14 15  1  1  0  0  0
 14 16  1  0  0  0  0
 16 27  1  6  0  0  0
 18 19  2  0  0  0  0
 18 23  1  0  0  0  0
 19 20  1  0  0  0  0
 20 21  2  0  0  0  0
 21 22  1  0  0  0  0
 21 27  1  0  0  0  0
 22 23  2  0  0  0  0
 22 25  1  0  0  0  0
 23 24  1  0  0  0  0
 25 26  2  0  0  0  0
 26 27  1  0  0  0  0
M  END
>  <CHROM.1>
154.81718747,49.91492783,-170.18553227,-92.09964844,-130.91640029,39.46070323
92.76877612,47.41667325,-29.05856707,-102.55344841,2.09605289,-0.16840297
-0.60590496

>  <Name>
ligand

>  <RI>
0

>  <Rbt.Current_Directory>
/home/itssahil/PROJECTS/Mol_Feturizer/New_Systems/rnas/4L81

>  <Rbt.Executable>
rbdock ($Id: //depot/dev/client3/rdock/2013.1/src/exe/rbdock.cxx#4 $)

>  <Rbt.Library>
libRbt.so (2013.1, Build901 2013/11/27)

>  <Rbt.Parameter_File>
/export/apps/rDock/src/rDock_2013.1_src/data/scripts/dock_solv.prm

>  <Rbt.Receptor>
prm/pocket_docking_2.prm

>  <SCORE>
-17.5227

>  <SCORE.INTER>
-17.4449

>  <SCORE.INTER.CONST>
1

>  <SCORE.INTER.POLAR>
0

>  <SCORE.INTER.ROT>
7

>  <SCORE.INTER.SOLV>
18.16

>  <SCORE.INTER.VDW>
-25.9499

>  <SCORE.INTER.norm>
-0.646106

>  <SCORE.INTRA>
-0.0891734

>  <SCORE.INTRA.DIHEDRAL>
2.58036

>  <SCORE.INTRA.DIHEDRAL.0>
8.34559

>  <SCORE.INTRA.POLAR>
0

>  <SCORE.INTRA.POLAR.0>
0

>  <SCORE.INTRA.REPUL>
0

>  <SCORE.INTRA.REPUL.0>
0

>  <SCORE.INTRA.SOLV>
-0.364556

>  <SCORE.INTRA.SOLV.lig_0>
-48.829

>  <SCORE.INTRA.VDW>
-1.19708

>  <SCORE.INTRA.VDW.0>
-1.77092

>  <SCORE.INTRA.norm>
-0.00330272

>  <SCORE.RESTR>
0.0113281

>  <SCORE.RESTR.CAVITY>
0.0113281

>  <SCORE.RESTR.norm>
0.000419561

>  <SCORE.SYSTEM>
0

>  <SCORE.SYSTEM.CONST>
0

>  <SCORE.SYSTEM.DIHEDRAL>
0

>  <SCORE.SYSTEM.SOLV>
0

>  <SCORE.SYSTEM.norm>
0

>  <SCORE.heavy>
27

>  <SCORE.norm>
-0.648989

>  <RMSD>
0.949

$$$$
ligand
 OpenBabel11021811503D
libRbt.so/2013.1/901 2013/11/27
 27 29  0  0  0  0  0  0  0  0999 V2000
   43.9140  -27.1197 -103.7216 N   0  0  0  0  0  0  0  0  0  0  0  0
   45.1197  -26.4803 -104.2604 C   0  0  2  0  0  0  0  0  0  0  0  0
   45.3894  -27.0046 -105.6550 C   0  0  0  0  0  0  0  0  0  0  0  0
   46.1196  -26.3851 -106.4138 O   0  0  0  0  0  0  0  0  0  0  0  0
   46.3438  -26.7631 -103.3788 C   0  0  0  0  0  0  0  0  0  0  0  0
   47.5355  -25.9269 -103.8230 C   0  0  0  0  0  0  0  0  0  0  0  0
   49.0064  -26.1307 -102.7468 S   0  0  2  0  0  0  0  0  0  0  0  0
   50.3822  -25.4958 -103.7585 C   0  0  0  0  0  0  0  0  0  0  0  0
   49.2126  -27.8827 -103.0581 C   0  0  0  0  0  0  0  0  0  0  0  0
   49.7408  -28.6502 -101.8754 C   0  0  1  0  0  0  0  0  0  0  0  0
   48.7393  -28.6165 -100.8445 O   0  0  0  0  0  0  0  0  0  0  0  0
   49.7782  -30.0369 -102.3787 C   0  0  1  0  0  0  0  0  0  0  0  0
   51.0991  -30.3524 -102.8159 O   0  0  0  0  0  0  0  0  0  0  0  0
   49.4404  -30.8332 -101.1565 C   0  0  1  0  0  0  0  0  0  0  0  0
   50.6343  -31.1220 -100.3997 O   0  0  0  0  0  0  0  0  0  0  0  0
   48.4823  -29.9404 -100.3121 C   0  0  2  0  0  0  0  0  0  0  0  0
   44.9084  -28.0631 -106.0197 O   0  0  0  0  0  0  0  0  0  0  0  0
   44.4309  -32.0139 -103.0479 N   0  0  0  0  0  0  0  0  0  0  0  0
   45.7494  -32.0590 -103.3600 C   0  0  0  0  0  0  0  0  0  0  0  0
   46.6888  -31.5245 -102.5520 N   0  0  0  0  0  0  0  0  0  0  0  0
   46.3367  -30.8475 -101.4469 C   0  0  0  0  0  0  0  0  0  0  0  0
   44.9407  -30.7390 -101.0979 C   0  0  0  0  0  0  0  0  0  0  0  0
   43.9845  -31.3665 -101.9508 C   0  0  0  0  0  0  0  0  0  0  0  0
   42.6342  -31.3103 -101.6711 N   0  0  0  0  0  0  0  0  0  0  0  0
   44.8660  -30.0200  -99.9717 N   0  0  0  0  0  0  0  0  0  0  0  0
   46.0663  -29.6765  -99.6100 C   0  0  0  0  0  0  0  0  0  0  0  0
   47.0163  -30.1641 -100.4768 N   0  0  0  0  0  0  0  0  0  0  0  0
  2  1  1  1  0  0  0
  2  3  1  0  0  0  0
  2  5  1  0  0  0  0
  3  4  1  0  0  0  0
  3 17  1  0  0  0  0
  5  6  1  0  0  0  0
  7  6  1  6  0  0  0
  7  8  1  0  0  0  0
  7  9  1  0  0  0  0
 10  9  1  6  0  0  0
 10 11  1  0  0  0  0
 10 12  1  0  0  0  0
 11 16  1  0  0  0  0
 12 13  1  1  0  0  0
 12 14  1  0  0  0  0
 14 15  1  1  0  0  0
 14 16  1  0  0  0  0
 16 27  1  6  0  0  0
 18 19  2  0  0  0  0
 18 23  1  0  0  0  0
 19 20  1  0  0  0  0
 20 21  2  0  0  0  0
 21 22  1  0  0  0  0
 21 27  1  0  0  0  0
 22 23  2  0  0  0  0
 22 25  1  0  0  0  0
 23 24  1  0  0  0  0
 25 26  2  0  0  0  0
 26 27  1  0  0  0  0
M  END
>  <CHROM.1>
161.41243598,-171.30866126,176.25866823,162.35036682,-146.45119889,66.23118654
98.59493384,47.14880037,-28.94015891,-102.56213843,0.99949230,-0.26752336
-0.64095282

>  <Name>
ligand

>  <RI>
0

>  <Rbt.Current_Directory>
/home/itssahil/PROJECTS/Mol_Feturizer/New_Systems/rnas/4L81

>  <Rbt.Executable>
rbdock ($Id: //depot/dev/client3/rdock/2013.1/src/exe/rbdock.cxx#4 $)

>  <Rbt.Library>
libRbt.so (2013.1, Build901 2013/11/27)

>  <Rbt.Parameter_File>
/export/apps/rDock/src/rDock_2013.1_src/data/scripts/dock_solv.prm

>  <Rbt.Receptor>
prm/pocket_docking_2.prm

>  <SCORE>
-16.22

>  <SCORE.INTER>
-14.2732

>  <SCORE.INTER.CONST>
1

>  <SCORE.INTER.POLAR>
0

>  <SCORE.INTER.ROT>
7

>  <SCORE.INTER.SOLV>
23.1219

>  <SCORE.INTER.VDW>
-25.4894

>  <SCORE.INTER.norm>
-0.528638

>  <SCORE.INTRA>
-1.95074

>  <SCORE.INTRA.DIHEDRAL>
-1.03484

>  <SCORE.INTRA.DIHEDRAL.0>
8.34559

>  <SCORE.INTRA.POLAR>
0

>  <SCORE.INTRA.POLAR.0>
0

>  <SCORE.INTRA.REPUL>
0

>  <SCORE.INTRA.REPUL.0>
0

>  <SCORE.INTRA.SOLV>
-1.28295

>  <SCORE.INTRA.SOLV.lig_0>
-48.829

>  <SCORE.INTRA.VDW>
-0.791851

>  <SCORE.INTRA.VDW.0>
-1.77092

>  <SCORE.INTRA.norm>
-0.0722497

>  <SCORE.RESTR>
0.00396718

>  <SCORE.RESTR.CAVITY>
0.00396718

>  <SCORE.RESTR.norm>
0.000146933

>  <SCORE.SYSTEM>
0

>  <SCORE.SYSTEM.CONST>
0

>  <SCORE.SYSTEM.DIHEDRAL>
0

>  <SCORE.SYSTEM.SOLV>
0

>  <SCORE.SYSTEM.norm>
0

>  <SCORE.heavy>
27

>  <SCORE.norm>
-0.600741

>  <RMSD>
0.980

$$$$
ligand
 OpenBabel11021811503D
libRbt.so/2013.1/901 2013/11/27
 27 29  0  0  0  0  0  0  0  0999 V2000
   44.0469  -27.7309 -103.8757 N   0  0  0  0  0  0  0  0  0  0  0  0
   45.2203  -26.9840 -104.3426 C   0  0  2  0  0  0  0  0  0  0  0  0
   45.6078  -27.4647 -105.7252 C   0  0  0  0  0  0  0  0  0  0  0  0
   45.7211  -26.6670 -106.6437 O   0  0  0  0  0  0  0  0  0  0  0  0
   46.4154  -27.1735 -103.3986 C   0  0  0  0  0  0  0  0  0  0  0  0
   47.5993  -26.3289 -103.8479 C   0  0  0  0  0  0  0  0  0  0  0  0
   49.0163  -26.3890 -102.6852 S   0  0  2  0  0  0  0  0  0  0  0  0
   50.3463  -25.5107 -103.5681 C   0  0  0  0  0  0  0  0  0  0  0  0
   49.4885  -28.0739 -103.0681 C   0  0  0  0  0  0  0  0  0  0  0  0
   49.9751  -28.8528 -101.8749 C   0  0  1  0  0  0  0  0  0  0  0  0
   48.9701  -28.7644 -100.8507 O   0  0  0  0  0  0  0  0  0  0  0  0
   49.9533  -30.2446 -102.3649 C   0  0  1  0  0  0  0  0  0  0  0  0
   51.2613  -30.6230 -102.7909 O   0  0  0  0  0  0  0  0  0  0  0  0
   49.5731  -31.0132 -101.1374 C   0  0  1  0  0  0  0  0  0  0  0  0
   50.7484  -31.3477 -100.3706 O   0  0  0  0  0  0  0  0  0  0  0  0
   48.6510  -30.0703 -100.3075 C   0  0  2  0  0  0  0  0  0  0  0  0
   45.8417  -28.6437 -105.9252 O   0  0  0  0  0  0  0  0  0  0  0  0
   44.5268  -31.9873 -103.0488 N   0  0  0  0  0  0  0  0  0  0  0  0
   45.8438  -32.0943 -103.3521 C   0  0  0  0  0  0  0  0  0  0  0  0
   46.8015  -31.5945 -102.5434 N   0  0  0  0  0  0  0  0  0  0  0  0
   46.4736  -30.8916 -101.4471 C   0  0  0  0  0  0  0  0  0  0  0  0
   45.0818  -30.7175 -101.1078 C   0  0  0  0  0  0  0  0  0  0  0  0
   44.1035  -31.3098 -101.9607 C   0  0  0  0  0  0  0  0  0  0  0  0
   42.7555  -31.1907 -101.6901 N   0  0  0  0  0  0  0  0  0  0  0  0
   45.0328  -29.9849  -99.9890 N   0  0  0  0  0  0  0  0  0  0  0  0
   46.2451  -29.6918  -99.6231 C   0  0  0  0  0  0  0  0  0  0  0  0
   47.1774  -30.2298 -100.4792 N   0  0  0  0  0  0  0  0  0  0  0  0
  2  1  1  1  0  0  0
  2  3  1  0  0  0  0
  2  5  1  0  0  0  0
  3  4  1  0  0  0  0
  3 17  1  0  0  0  0
  5  6  1  0  0  0  0
  7  6  1  6  0  0  0
  7  8  1  0  0  0  0
  7  9  1  0  0  0  0
 10  9  1  6  0  0  0
 10 11  1  0  0  0  0
 10 12  1  0  0  0  0
 11 16  1  0  0  0  0
 12 13  1  1  0  0  0
 12 14  1  0  0  0  0
 14 15  1  1  0  0  0
 14 16  1  0  0  0  0
 16 27  1  6  0  0  0
 18 19  2  0  0  0  0
 18 23  1  0  0  0  0
 19 20  1  0  0  0  0
 20 21  2  0  0  0  0
 21 22  1  0  0  0  0
 21 27  1  0  0  0  0
 22 23  2  0  0  0  0
 22 25  1  0  0  0  0
 23 24  1  0  0  0  0
 25 26  2  0  0  0  0
 26 27  1  0  0  0  0
M  END
>  <CHROM.1>
125.91531781,-176.61735303,174.91543248,172.12080133,-143.17352933,53.53391746
98.60089151,47.28847345,-29.13552543,-102.56635146,2.97739995,0.27622398
2.46135387

>  <Name>
ligand

>  <RI>
0

>  <Rbt.Current_Directory>
/home/itssahil/PROJECTS/Mol_Feturizer/New_Systems/rnas/4L81

>  <Rbt.Executable>
rbdock ($Id: //depot/dev/client3/rdock/2013.1/src/exe/rbdock.cxx#4 $)

>  <Rbt.Library>
libRbt.so (2013.1, Build901 2013/11/27)

>  <Rbt.Parameter_File>
/export/apps/rDock/src/rDock_2013.1_src/data/scripts/dock_solv.prm

>  <Rbt.Receptor>
prm/pocket_docking_5.prm

>  <SCORE>
-16.9612

>  <SCORE.INTER>
-14.2878

>  <SCORE.INTER.CONST>
1

>  <SCORE.INTER.POLAR>
0

>  <SCORE.INTER.ROT>
7

>  <SCORE.INTER.SOLV>
20.7971

>  <SCORE.INTER.VDW>
-24.7243

>  <SCORE.INTER.norm>
-0.529178

>  <SCORE.INTRA>
-2.67338

>  <SCORE.INTRA.DIHEDRAL>
-1.0955

>  <SCORE.INTRA.DIHEDRAL.0>
8.34559

>  <SCORE.INTRA.POLAR>
0

>  <SCORE.INTRA.POLAR.0>
0

>  <SCORE.INTRA.REPUL>
0

>  <SCORE.INTRA.REPUL.0>
0

>  <SCORE.INTRA.SOLV>
-1.08068

>  <SCORE.INTRA.SOLV.lig_0>
-48.829

>  <SCORE.INTRA.VDW>
-1.58529

>  <SCORE.INTRA.VDW.0>
-1.77092

>  <SCORE.INTRA.norm>
-0.0990142

>  <SCORE.RESTR>
0

>  <SCORE.RESTR.CAVITY>
0

>  <SCORE.RESTR.norm>
0

>  <SCORE.SYSTEM>
0

>  <SCORE.SYSTEM.CONST>
0

>  <SCORE.SYSTEM.DIHEDRAL>
0

>  <SCORE.SYSTEM.SOLV>
0

>  <SCORE.SYSTEM.norm>
0

>  <SCORE.heavy>
27

>  <SCORE.norm>
-0.628193

>  <RMSD>
1.029

$$$$
ligand
 OpenBabel11021811503D
libRbt.so/2013.1/901 2013/11/27
 27 29  0  0  0  0  0  0  0  0999 V2000
   45.3884  -26.9658 -102.9318 N   0  0  0  0  0  0  0  0  0  0  0  0
   46.0937  -25.9343 -103.7007 C   0  0  2  0  0  0  0  0  0  0  0  0
   46.2775  -26.4052 -105.1280 C   0  0  0  0  0  0  0  0  0  0  0  0
   46.0057  -25.6632 -106.0597 O   0  0  0  0  0  0  0  0  0  0  0  0
   47.4719  -25.6315 -103.0970 C   0  0  0  0  0  0  0  0  0  0  0  0
   48.2051  -26.9192 -102.7489 C   0  0  0  0  0  0  0  0  0  0  0  0
   50.0105  -26.8326 -103.0589 S   0  0  2  0  0  0  0  0  0  0  0  0
   50.1330  -26.2465 -104.7797 C   0  0  0  0  0  0  0  0  0  0  0  0
   50.2261  -28.5881 -103.3429 C   0  0  0  0  0  0  0  0  0  0  0  0
   50.6037  -29.3600 -102.1066 C   0  0  1  0  0  0  0  0  0  0  0  0
   49.5938  -29.1211 -101.1116 O   0  0  0  0  0  0  0  0  0  0  0  0
   50.4442  -30.7622 -102.5379 C   0  0  1  0  0  0  0  0  0  0  0  0
   51.7128  -31.2945 -102.9157 O   0  0  0  0  0  0  0  0  0  0  0  0
   49.9605  -31.4313 -101.2887 C   0  0  1  0  0  0  0  0  0  0  0  0
   51.0784  -31.8530 -100.4802 O   0  0  0  0  0  0  0  0  0  0  0  0
   49.1275  -30.3608 -100.5218 C   0  0  2  0  0  0  0  0  0  0  0  0
   46.7284  -27.5136 -105.3585 O   0  0  0  0  0  0  0  0  0  0  0  0
   44.8527  -32.2014 -103.0786 N   0  0  0  0  0  0  0  0  0  0  0  0
   46.1523  -32.5103 -103.3102 C   0  0  0  0  0  0  0  0  0  0  0  0
   47.1483  -32.0012 -102.5553 N   0  0  0  0  0  0  0  0  0  0  0  0
   46.8880  -31.0955 -101.5986 C   0  0  0  0  0  0  0  0  0  0  0  0
   45.5217  -30.7063 -101.3452 C   0  0  0  0  0  0  0  0  0  0  0  0
   44.4948  -31.3108 -102.1296 C   0  0  0  0  0  0  0  0  0  0  0  0
   43.1665  -30.9917 -101.9334 N   0  0  0  0  0  0  0  0  0  0  0  0
   45.5414  -29.8005 -100.3603 N   0  0  0  0  0  0  0  0  0  0  0  0
   46.7733  -29.5961  -99.9995 C   0  0  0  0  0  0  0  0  0  0  0  0
   47.6490  -30.3721 -100.7224 N   0  0  0  0  0  0  0  0  0  0  0  0
  2  1  1  1  0  0  0
  2  3  1  0  0  0  0
  2  5  1  0  0  0  0
  3  4  1  0  0  0  0
  3 17  1  0  0  0  0
  5  6  1  0  0  0  0
  7  6  1  6  0  0  0
  7  8  1  0  0  0  0
  7  9  1  0  0  0  0
 10  9  1  6  0  0  0
 10 11  1  0  0  0  0
 10 12  1  0  0  0  0
 11 16  1  0  0  0  0
 12 13  1  1  0  0  0
 12 14  1  0  0  0  0
 14 15  1  1  0  0  0
 14 16  1  0  0  0  0
 16 27  1  6  0  0  0
 18 19  2  0  0  0  0
 18 23  1  0  0  0  0
 19 20  1  0  0  0  0
 20 21  2  0  0  0  0
 21 22  1  0  0  0  0
 21 27  1  0  0  0  0
 22 23  2  0  0  0  0
 22 25  1  0  0  0  0
 23 24  1  0  0  0  0
 25 26  2  0  0  0  0
 26 27  1  0  0  0  0
M  END
>  <CHROM.1>
132.63705840,45.27245569,143.06840922,-51.80875500,-92.77329972,56.52740384
105.48085979,47.85588893,-29.15216185,-102.58813443,1.63304704,-0.09499458
-0.50196292

>  <Name>
ligand

>  <RI>
0

>  <Rbt.Current_Directory>
/home/itssahil/PROJECTS/Mol_Feturizer/New_Systems/rnas/4L81

>  <Rbt.Executable>
rbdock ($Id: //depot/dev/client3/rdock/2013.1/src/exe/rbdock.cxx#4 $)

>  <Rbt.Library>
libRbt.so (2013.1, Build901 2013/11/27)

>  <Rbt.Parameter_File>
/export/apps/rDock/src/rDock_2013.1_src/data/scripts/dock_solv.prm

>  <Rbt.Receptor>
prm/pocket_docking_2.prm

>  <SCORE>
-15.9229

>  <SCORE.INTER>
-15.6588

>  <SCORE.INTER.CONST>
1

>  <SCORE.INTER.POLAR>
0

>  <SCORE.INTER.ROT>
7

>  <SCORE.INTER.SOLV>
18.4677

>  <SCORE.INTER.VDW>
-24.8618

>  <SCORE.INTER.norm>
-0.579957

>  <SCORE.INTRA>
-0.304164

>  <SCORE.INTRA.DIHEDRAL>
2.01907

>  <SCORE.INTRA.DIHEDRAL.0>
8.34559

>  <SCORE.INTRA.POLAR>
0

>  <SCORE.INTRA.POLAR.0>
0

>  <SCORE.INTRA.REPUL>
0

>  <SCORE.INTRA.REPUL.0>
0

>  <SCORE.INTRA.SOLV>
-0.337595

>  <SCORE.INTRA.SOLV.lig_0>
-48.829

>  <SCORE.INTRA.VDW>
-1.1449

>  <SCORE.INTRA.VDW.0>
-1.77092

>  <SCORE.INTRA.norm>
-0.0112653

>  <SCORE.RESTR>
0.0400729

>  <SCORE.RESTR.CAVITY>
0.0400729

>  <SCORE.RESTR.norm>
0.00148418

>  <SCORE.SYSTEM>
0

>  <SCORE.SYSTEM.CONST>
0

>  <SCORE.SYSTEM.DIHEDRAL>
0

>  <SCORE.SYSTEM.SOLV>
0

>  <SCORE.SYSTEM.norm>
0

>  <SCORE.heavy>
27

>  <SCORE.norm>
-0.589738

>  <RMSD>
1.033

$$$$
ligand
 OpenBabel11021811503D
libRbt.so/2013.1/901 2013/11/27
 27 29  0  0  0  0  0  0  0  0999 V2000
   45.7170  -25.4141 -105.5181 N   0  0  0  0  0  0  0  0  0  0  0  0
   45.8017  -26.8654 -105.3200 C   0  0  2  0  0  0  0  0  0  0  0  0
   44.8774  -27.2764 -104.1933 C   0  0  0  0  0  0  0  0  0  0  0  0
   44.5921  -28.4532 -104.0308 O   0  0  0  0  0  0  0  0  0  0  0  0
   47.2320  -27.2994 -104.9715 C   0  0  0  0  0  0  0  0  0  0  0  0
   47.7770  -26.4832 -103.8081 C   0  0  0  0  0  0  0  0  0  0  0  0
   49.5817  -26.6921 -103.5577 S   0  0  2  0  0  0  0  0  0  0  0  0
   50.2859  -26.4588 -105.2218 C   0  0  0  0  0  0  0  0  0  0  0  0
   49.5486  -28.4826 -103.5139 C   0  0  0  0  0  0  0  0  0  0  0  0
   50.1017  -29.0678 -102.2418 C   0  0  1  0  0  0  0  0  0  0  0  0
   49.1468  -28.8279 -101.1941 O   0  0  0  0  0  0  0  0  0  0  0  0
   50.0722  -30.5183 -102.5120 C   0  0  1  0  0  0  0  0  0  0  0  0
   51.3621  -30.9522 -102.9401 O   0  0  0  0  0  0  0  0  0  0  0  0
   49.7611  -31.0916 -101.1642 C   0  0  1  0  0  0  0  0  0  0  0  0
   50.9762  -31.3003 -100.4150 O   0  0  0  0  0  0  0  0  0  0  0  0
   48.8697  -30.0366 -100.4429 C   0  0  2  0  0  0  0  0  0  0  0  0
   44.4381  -26.4427 -103.4208 O   0  0  0  0  0  0  0  0  0  0  0  0
   44.5986  -31.9297 -102.9672 N   0  0  0  0  0  0  0  0  0  0  0  0
   45.8916  -31.9878 -103.3704 C   0  0  0  0  0  0  0  0  0  0  0  0
   46.8949  -31.5017 -102.6101 N   0  0  0  0  0  0  0  0  0  0  0  0
   46.6332  -30.8601 -101.4597 C   0  0  0  0  0  0  0  0  0  0  0  0
   45.2667  -30.7386 -101.0120 C   0  0  0  0  0  0  0  0  0  0  0  0
   44.2417  -31.3155 -101.8193 C   0  0  0  0  0  0  0  0  0  0  0  0
   42.9150  -31.2446 -101.4458 N   0  0  0  0  0  0  0  0  0  0  0  0
   45.2840  -30.0611  -99.8581 N   0  0  0  0  0  0  0  0  0  0  0  0
   46.5131  -29.7539  -99.5674 C   0  0  0  0  0  0  0  0  0  0  0  0
   47.3915  -30.2264 -100.5145 N   0  0  0  0  0  0  0  0  0  0  0  0
  2  1  1  1  0  0  0
  2  3  1  0  0  0  0
  2  5  1  0  0  0  0
  3  4  1  0  0  0  0
  3 17  1  0  0  0  0
  5  6  1  0  0  0  0
  7  6  1  6  0  0  0
  7  8  1  0  0  0  0
  7  9  1  0  0  0  0
 10  9  1  6  0  0  0
 10 11  1  0  0  0  0
 10 12  1  0  0  0  0
 11 16  1  0  0  0  0
 12 13  1  1  0  0  0
 12 14  1  0  0  0  0
 14 15  1  1  0  0  0
 14 16  1  0  0  0  0
 16 27  1  6  0  0  0
 18 19  2  0  0  0  0
 18 23  1  0  0  0  0
 19 20  1  0  0  0  0
 20 21  2  0  0  0  0
 21 22  1  0  0  0  0
 21 27  1  0  0  0  0
 22 23  2  0  0  0  0
 22 25  1  0  0  0  0
 23 24  1  0  0  0  0
 25 26  2  0  0  0  0
 26 27  1  0  0  0  0
M  END
>  <CHROM.1>
165.66449306,51.98559165,-167.99224116,48.85631001,-121.89138355,72.62310376
86.94050024,47.41888385,-29.14139019,-102.63120686,1.01923749,-0.06423222
-0.64842356

>  <Name>
ligand

>  <RI>
0

>  <Rbt.Current_Directory>
/home/itssahil/PROJECTS/Mol_Feturizer/New_Systems/rnas/4L81

>  <Rbt.Executable>
rbdock ($Id: //depot/dev/client3/rdock/2013.1/src/exe/rbdock.cxx#4 $)

>  <Rbt.Library>
libRbt.so (2013.1, Build901 2013/11/27)

>  <Rbt.Parameter_File>
/export/apps/rDock/src/rDock_2013.1_src/data/scripts/dock_solv.prm

>  <Rbt.Receptor>
prm/pocket_docking_2.prm

>  <SCORE>
-13.964

>  <SCORE.INTER>
-14.0503

>  <SCORE.INTER.CONST>
1

>  <SCORE.INTER.POLAR>
0

>  <SCORE.INTER.ROT>
7

>  <SCORE.INTER.SOLV>
18.4409

>  <SCORE.INTER.VDW>
-23.7805

>  <SCORE.INTER.norm>
-0.520382

>  <SCORE.INTRA>
0.0862848

>  <SCORE.INTRA.DIHEDRAL>
0.561744

>  <SCORE.INTRA.DIHEDRAL.0>
8.34559

>  <SCORE.INTRA.POLAR>
0

>  <SCORE.INTRA.POLAR.0>
0

>  <SCORE.INTRA.REPUL>
0

>  <SCORE.INTRA.REPUL.0>
0

>  <SCORE.INTRA.SOLV>
-0.419195

>  <SCORE.INTRA.SOLV.lig_0>
-48.829

>  <SCORE.INTRA.VDW>
0.0150103

>  <SCORE.INTRA.VDW.0>
-1.77092

>  <SCORE.INTRA.norm>
0.00319573

>  <SCORE.RESTR>
0

>  <SCORE.RESTR.CAVITY>
0

>  <SCORE.RESTR.norm>
0

>  <SCORE.SYSTEM>
0

>  <SCORE.SYSTEM.CONST>
0

>  <SCORE.SYSTEM.DIHEDRAL>
0

>  <SCORE.SYSTEM.SOLV>
0

>  <SCORE.SYSTEM.norm>
0

>  <SCORE.heavy>
27

>  <SCORE.norm>
-0.517186

>  <RMSD>
1.047

$$$$
ligand
 OpenBabel11021811503D
libRbt.so/2013.1/901 2013/11/27
 27 29  0  0  0  0  0  0  0  0999 V2000
   45.9728  -25.6128 -105.3549 N   0  0  0  0  0  0  0  0  0  0  0  0
   46.0665  -26.8068 -104.5074 C   0  0  2  0  0  0  0  0  0  0  0  0
   44.6806  -27.3703 -104.2734 C   0  0  0  0  0  0  0  0  0  0  0  0
   44.5262  -28.5699 -104.1003 O   0  0  0  0  0  0  0  0  0  0  0  0
   46.7047  -26.4804 -103.1503 C   0  0  0  0  0  0  0  0  0  0  0  0
   47.6958  -27.5619 -102.7442 C   0  0  0  0  0  0  0  0  0  0  0  0
   49.4335  -26.9766 -102.7068 S   0  0  2  0  0  0  0  0  0  0  0  0
   49.6410  -26.1149 -104.2986 C   0  0  0  0  0  0  0  0  0  0  0  0
   50.1614  -28.5541 -103.1430 C   0  0  0  0  0  0  0  0  0  0  0  0
   50.5711  -29.3818 -101.9540 C   0  0  1  0  0  0  0  0  0  0  0  0
   49.6079  -29.1610 -100.9097 O   0  0  0  0  0  0  0  0  0  0  0  0
   50.3623  -30.7622 -102.4320 C   0  0  1  0  0  0  0  0  0  0  0  0
   51.6020  -31.3061 -102.8821 O   0  0  0  0  0  0  0  0  0  0  0  0
   49.9144  -31.4696 -101.1905 C   0  0  1  0  0  0  0  0  0  0  0  0
   51.0542  -31.9465 -100.4457 O   0  0  0  0  0  0  0  0  0  0  0  0
   49.1377  -30.4127 -100.3493 C   0  0  2  0  0  0  0  0  0  0  0  0
   43.7142  -26.6298 -104.2228 O   0  0  0  0  0  0  0  0  0  0  0  0
   44.7490  -31.7538 -103.0212 N   0  0  0  0  0  0  0  0  0  0  0  0
   46.0356  -32.0185 -103.3568 C   0  0  0  0  0  0  0  0  0  0  0  0
   47.0652  -31.6558 -102.5634 N   0  0  0  0  0  0  0  0  0  0  0  0
   46.8510  -30.9368 -101.4495 C   0  0  0  0  0  0  0  0  0  0  0  0
   45.4994  -30.5969 -101.0754 C   0  0  0  0  0  0  0  0  0  0  0  0
   44.4368  -31.0481 -101.9138 C   0  0  0  0  0  0  0  0  0  0  0  0
   43.1203  -30.7669 -101.6100 N   0  0  0  0  0  0  0  0  0  0  0  0
   45.5661  -29.8836  -99.9452 N   0  0  0  0  0  0  0  0  0  0  0  0
   46.8130  -29.7499  -99.6034 C   0  0  0  0  0  0  0  0  0  0  0  0
   47.6524  -30.3847 -100.4888 N   0  0  0  0  0  0  0  0  0  0  0  0
  2  1  1  6  0  0  0
  2  3  1  0  0  0  0
  2  5  1  0  0  0  0
  3  4  1  0  0  0  0
  3 17  1  0  0  0  0
  5  6  1  0  0  0  0
  7  6  1  6  0  0  0
  7  8  1  0  0  0  0
  7  9  1  0  0  0  0
 10  9  1  6  0  0  0
 10 11  1  0  0  0  0
 10 12  1  0  0  0  0
 11 16  1  0  0  0  0
 12 13  1  1  0  0  0
 12 14  1  0  0  0  0
 14 15  1  1  0  0  0
 14 16  1  0  0  0  0
 16 27  1  6  0  0  0
 18 19  2  0  0  0  0
 18 23  1  0  0  0  0
 19 20  1  0  0  0  0
 20 21  2  0  0  0  0
 21 22  1  0  0  0  0
 21 27  1  0  0  0  0
 22 23  2  0  0  0  0
 22 25  1  0  0  0  0
 23 24  1  0  0  0  0
 25 26  2  0  0  0  0
 26 27  1  0  0  0  0
M  END
>  <CHROM.1>
149.90394853,-137.75568423,113.27974809,-48.52056104,-93.68698038,35.65577478
97.28000285,47.50480340,-29.25431123,-102.40031219,-2.57107663,0.09906155
2.61333561

>  <Name>
ligand

>  <RI>
0

>  <Rbt.Current_Directory>
/home/itssahil/PROJECTS/Mol_Feturizer/New_Systems/rnas/4L81

>  <Rbt.Executable>
rbdock ($Id: //depot/dev/client3/rdock/2013.1/src/exe/rbdock.cxx#4 $)

>  <Rbt.Library>
libRbt.so (2013.1, Build901 2013/11/27)

>  <Rbt.Parameter_File>
/export/apps/rDock/src/rDock_2013.1_src/data/scripts/dock_solv.prm

>  <Rbt.Receptor>
prm/pocket_docking_2.prm

>  <SCORE>
-13.5227

>  <SCORE.INTER>
-15.9706

>  <SCORE.INTER.CONST>
1

>  <SCORE.INTER.POLAR>
0

>  <SCORE.INTER.ROT>
7

>  <SCORE.INTER.SOLV>
17.0984

>  <SCORE.INTER.VDW>
-24.6132

>  <SCORE.INTER.norm>
-0.591505

>  <SCORE.INTRA>
2.43661

>  <SCORE.INTRA.DIHEDRAL>
9.55268

>  <SCORE.INTRA.DIHEDRAL.0>
8.34559

>  <SCORE.INTRA.POLAR>
0

>  <SCORE.INTRA.POLAR.0>
0

>  <SCORE.INTRA.REPUL>
0

>  <SCORE.INTRA.REPUL.0>
0

>  <SCORE.INTRA.SOLV>
0.0710598

>  <SCORE.INTRA.SOLV.lig_0>
-48.829

>  <SCORE.INTRA.VDW>
-2.37526

>  <SCORE.INTRA.VDW.0>
-1.77092

>  <SCORE.INTRA.norm>
0.0902447

>  <SCORE.RESTR>
0.0113155

>  <SCORE.RESTR.CAVITY>
0.0113155

>  <SCORE.RESTR.norm>
0.000419093

>  <SCORE.SYSTEM>
0

>  <SCORE.SYSTEM.CONST>
0

>  <SCORE.SYSTEM.DIHEDRAL>
0

>  <SCORE.SYSTEM.SOLV>
0

>  <SCORE.SYSTEM.norm>
0

>  <SCORE.heavy>
27

>  <SCORE.norm>
-0.500841

>  <RMSD>
1.060

$$$$
ligand
 OpenBabel11021811503D
libRbt.so/2013.1/901 2013/11/27
 27 29  0  0  0  0  0  0  0  0999 V2000
   45.4079  -28.5598 -104.9111 N   0  0  0  0  0  0  0  0  0  0  0  0
   45.2285  -27.1894 -104.4187 C   0  0  2  0  0  0  0  0  0  0  0  0
   45.2690  -26.2242 -105.5847 C   0  0  0  0  0  0  0  0  0  0  0  0
   45.8534  -26.5279 -106.6138 O   0  0  0  0  0  0  0  0  0  0  0  0
   46.3284  -26.8062 -103.4193 C   0  0  0  0  0  0  0  0  0  0  0  0
   47.7028  -26.8914 -104.0678 C   0  0  0  0  0  0  0  0  0  0  0  0
   49.0817  -26.7560 -102.8663 S   0  0  2  0  0  0  0  0  0  0  0  0
   50.3307  -25.7595 -103.7419 C   0  0  0  0  0  0  0  0  0  0  0  0
   49.7515  -28.3874 -103.1805 C   0  0  0  0  0  0  0  0  0  0  0  0
   50.2375  -29.0917 -101.9417 C   0  0  1  0  0  0  0  0  0  0  0  0
   49.2508  -28.9059 -100.9127 O   0  0  0  0  0  0  0  0  0  0  0  0
   50.1748  -30.5137 -102.3311 C   0  0  1  0  0  0  0  0  0  0  0  0
   51.4666  -30.9540 -102.7469 O   0  0  0  0  0  0  0  0  0  0  0  0
   49.7952  -31.1837 -101.0469 C   0  0  1  0  0  0  0  0  0  0  0  0
   50.9738  -31.4923 -100.2743 O   0  0  0  0  0  0  0  0  0  0  0  0
   48.9089  -30.1616 -100.2737 C   0  0  2  0  0  0  0  0  0  0  0  0
   44.6922  -25.1528 -105.5187 O   0  0  0  0  0  0  0  0  0  0  0  0
   44.6887  -31.8426 -103.0237 N   0  0  0  0  0  0  0  0  0  0  0  0
   45.9954  -31.9388 -103.3720 C   0  0  0  0  0  0  0  0  0  0  0  0
   46.9808  -31.5062 -102.5578 N   0  0  0  0  0  0  0  0  0  0  0  0
   46.6916  -30.8808 -101.4051 C   0  0  0  0  0  0  0  0  0  0  0  0
   45.3119  -30.7196 -101.0141 C   0  0  0  0  0  0  0  0  0  0  0  0
   44.3036  -31.2412 -101.8782 C   0  0  0  0  0  0  0  0  0  0  0  0
   42.9651  -31.1303 -101.5607 N   0  0  0  0  0  0  0  0  0  0  0  0
   45.3024  -30.0686  -99.8450 N   0  0  0  0  0  0  0  0  0  0  0  0
   46.5276  -29.8126  -99.4944 C   0  0  0  0  0  0  0  0  0  0  0  0
   47.4295  -30.2959 -100.4135 N   0  0  0  0  0  0  0  0  0  0  0  0
  2  1  1  6  0  0  0
  2  3  1  0  0  0  0
  2  5  1  0  0  0  0
  3  4  1  0  0  0  0
  3 17  1  0  0  0  0
  5  6  1  0  0  0  0
  7  6  1  6  0  0  0
  7  8  1  0  0  0  0
  7  9  1  0  0  0  0
 10  9  1  6  0  0  0
 10 11  1  0  0  0  0
 10 12  1  0  0  0  0
 11 16  1  0  0  0  0
 12 13  1  1  0  0  0
 12 14  1  0  0  0  0
 14 15  1  1  0  0  0
 14 16  1  0  0  0  0
 16 27  1  6  0  0  0
 18 19  2  0  0  0  0
 18 23  1  0  0  0  0
 19 20  1  0  0  0  0
 20 21  2  0  0  0  0
 21 22  1  0  0  0  0
 21 27  1  0  0  0  0
 22 23  2  0  0  0  0
 22 25  1  0  0  0  0
 23 24  1  0  0  0  0
 25 26  2  0  0  0  0
 26 27  1  0  0  0  0
M  END
>  <CHROM.1>
-24.55292454,60.00222745,-169.21303435,-141.52429457,-140.94251257,44.31965922
90.34860875,47.43337546,-29.08554167,-102.58920904,2.07343018,-0.18484089
-0.64745823

>  <Name>
ligand

>  <RI>
0

>  <Rbt.Current_Directory>
/home/itssahil/PROJECTS/Mol_Feturizer/New_Systems/rnas/4L81

>  <Rbt.Executable>
rbdock ($Id: //depot/dev/client3/rdock/2013.1/src/exe/rbdock.cxx#4 $)

>  <Rbt.Library>
libRbt.so (2013.1, Build901 2013/11/27)

>  <Rbt.Parameter_File>
/export/apps/rDock/src/rDock_2013.1_src/data/scripts/dock_solv.prm

>  <Rbt.Receptor>
prm/pocket_docking_3.prm

>  <SCORE>
-16.5877

>  <SCORE.INTER>
-16.8497

>  <SCORE.INTER.CONST>
1

>  <SCORE.INTER.POLAR>
0

>  <SCORE.INTER.ROT>
7

>  <SCORE.INTER.SOLV>
16.3594

>  <SCORE.INTER.VDW>
-24.9529

>  <SCORE.INTER.norm>
-0.624061

>  <SCORE.INTRA>
0.261955

>  <SCORE.INTRA.DIHEDRAL>
3.88988

>  <SCORE.INTRA.DIHEDRAL.0>
8.34559

>  <SCORE.INTRA.POLAR>
0

>  <SCORE.INTRA.POLAR.0>
0

>  <SCORE.INTRA.REPUL>
0

>  <SCORE.INTRA.REPUL.0>
0

>  <SCORE.INTRA.SOLV>
-0.297927

>  <SCORE.INTRA.SOLV.lig_0>
-48.829

>  <SCORE.INTRA.VDW>
-1.53402

>  <SCORE.INTRA.VDW.0>
-1.77092

>  <SCORE.INTRA.norm>
0.00970204

>  <SCORE.RESTR>
0

>  <SCORE.RESTR.CAVITY>
0

>  <SCORE.RESTR.norm>
0

>  <SCORE.SYSTEM>
0

>  <SCORE.SYSTEM.CONST>
0

>  <SCORE.SYSTEM.DIHEDRAL>
0

>  <SCORE.SYSTEM.SOLV>
0

>  <SCORE.SYSTEM.norm>
0

>  <SCORE.heavy>
27

>  <SCORE.norm>
-0.614359

>  <RMSD>
1.069

$$$$
ligand
 OpenBabel11021811503D
libRbt.so/2013.1/901 2013/11/27
 27 29  0  0  0  0  0  0  0  0999 V2000
   45.5991  -25.4099 -105.5035 N   0  0  0  0  0  0  0  0  0  0  0  0
   45.7659  -26.8260 -105.1579 C   0  0  2  0  0  0  0  0  0  0  0  0
   45.0253  -27.1227 -103.8709 C   0  0  0  0  0  0  0  0  0  0  0  0
   44.5164  -28.2191 -103.6936 O   0  0  0  0  0  0  0  0  0  0  0  0
   47.2464  -27.1855 -104.9724 C   0  0  0  0  0  0  0  0  0  0  0  0
   47.8553  -26.3951 -103.8229 C   0  0  0  0  0  0  0  0  0  0  0  0
   49.6505  -26.6995 -103.6038 S   0  0  2  0  0  0  0  0  0  0  0  0
   50.3300  -26.5499 -105.2877 C   0  0  0  0  0  0  0  0  0  0  0  0
   49.5178  -28.4834 -103.5107 C   0  0  0  0  0  0  0  0  0  0  0  0
   50.1206  -29.0715 -102.2626 C   0  0  1  0  0  0  0  0  0  0  0  0
   49.1915  -28.8662 -101.1848 O   0  0  0  0  0  0  0  0  0  0  0  0
   50.1158  -30.5188 -102.5506 C   0  0  1  0  0  0  0  0  0  0  0  0
   51.4021  -30.9180 -103.0211 O   0  0  0  0  0  0  0  0  0  0  0  0
   49.8570  -31.1156 -101.2018 C   0  0  1  0  0  0  0  0  0  0  0  0
   51.0977  -31.3056 -100.4906 O   0  0  0  0  0  0  0  0  0  0  0  0
   48.9635  -30.0900 -100.4415 C   0  0  2  0  0  0  0  0  0  0  0  0
   44.9595  -26.2835 -102.9898 O   0  0  0  0  0  0  0  0  0  0  0  0
   44.5552  -31.2859 -103.1498 N   0  0  0  0  0  0  0  0  0  0  0  0
   45.8151  -31.1586 -103.6340 C   0  0  0  0  0  0  0  0  0  0  0  0
   46.8623  -30.8906 -102.8263 N   0  0  0  0  0  0  0  0  0  0  0  0
   46.6746  -30.6521 -101.5181 C   0  0  0  0  0  0  0  0  0  0  0  0
   45.3435  -30.7364 -100.9671 C   0  0  0  0  0  0  0  0  0  0  0  0
   44.2730  -31.0768 -101.8465 C   0  0  0  0  0  0  0  0  0  0  0  0
   42.9770  -31.1842 -101.3842 N   0  0  0  0  0  0  0  0  0  0  0  0
   45.4335  -30.4527  -99.6624 N   0  0  0  0  0  0  0  0  0  0  0  0
   46.6742  -30.1980  -99.3704 C   0  0  0  0  0  0  0  0  0  0  0  0
   47.4885  -30.3125 -100.4730 N   0  0  0  0  0  0  0  0  0  0  0  0
  2  1  1  1  0  0  0
  2  3  1  0  0  0  0
  2  5  1  0  0  0  0
  3  4  1  0  0  0  0
  3 17  1  0  0  0  0
  5  6  1  0  0  0  0
  7  6  1  6  0  0  0
  7  8  1  0  0  0  0
  7  9  1  0  0  0  0
 10  9  1  6  0  0  0
 10 11  1  0  0  0  0
 10 12  1  0  0  0  0
 11 16  1  0  0  0  0
 12 13  1  1  0  0  0
 12 14  1  0  0  0  0
 14 15  1  1  0  0  0
 14 16  1  0  0  0  0
 16 27  1  6  0  0  0
 18 19  2  0  0  0  0
 18 23  1  0  0  0  0
 19 20  1  0  0  0  0
 20 21  2  0  0  0  0
 21 22  1  0  0  0  0
 21 27  1  0  0  0  0
 22 23  2  0  0  0  0
 22 25  1  0  0  0  0
 23 24  1  0  0  0  0
 25 26  2  0  0  0  0
 26 27  1  0  0  0  0
M  END
>  <CHROM.1>
147.24433608,62.09752461,-176.61724909,47.56158080,-124.49641807,78.15378322
69.20892080,47.47826160,-29.06336013,-102.60676777,0.85609281,-0.02625972
-0.67362159

>  <Name>
ligand

>  <RI>
0

>  <Rbt.Current_Directory>
/home/itssahil/PROJECTS/Mol_Feturizer/New_Systems/rnas/4L81

>  <Rbt.Executable>
rbdock ($Id: //depot/dev/client3/rdock/2013.1/src/exe/rbdock.cxx#4 $)

>  <Rbt.Library>
libRbt.so (2013.1, Build901 2013/11/27)

>  <Rbt.Parameter_File>
/export/apps/rDock/src/rDock_2013.1_src/data/scripts/dock_solv.prm

>  <Rbt.Receptor>
prm/pocket_docking_2.prm

>  <SCORE>
-13.8606

>  <SCORE.INTER>
-13.2385

>  <SCORE.INTER.CONST>
1

>  <SCORE.INTER.POLAR>
0

>  <SCORE.INTER.ROT>
7

>  <SCORE.INTER.SOLV>
18.9107

>  <SCORE.INTER.VDW>
-23.3959

>  <SCORE.INTER.norm>
-0.490316

>  <SCORE.INTRA>
-0.6607

>  <SCORE.INTRA.DIHEDRAL>
0.431294

>  <SCORE.INTRA.DIHEDRAL.0>
8.34559

>  <SCORE.INTRA.POLAR>
0

>  <SCORE.INTRA.POLAR.0>
0

>  <SCORE.INTRA.REPUL>
0

>  <SCORE.INTRA.REPUL.0>
0

>  <SCORE.INTRA.SOLV>
-0.649229

>  <SCORE.INTRA.SOLV.lig_0>
-48.829

>  <SCORE.INTRA.VDW>
-0.551732

>  <SCORE.INTRA.VDW.0>
-1.77092

>  <SCORE.INTRA.norm>
-0.0244704

>  <SCORE.RESTR>
0.038656

>  <SCORE.RESTR.CAVITY>
0.038656

>  <SCORE.RESTR.norm>
0.0014317

>  <SCORE.SYSTEM>
0

>  <SCORE.SYSTEM.CONST>
0

>  <SCORE.SYSTEM.DIHEDRAL>
0

>  <SCORE.SYSTEM.SOLV>
0

>  <SCORE.SYSTEM.norm>
0

>  <SCORE.heavy>
27

>  <SCORE.norm>
-0.513355

>  <RMSD>
1.074

$$$$
ligand
 OpenBabel11021811503D
libRbt.so/2013.1/901 2013/11/27
 27 29  0  0  0  0  0  0  0  0999 V2000
   46.8207  -24.7480 -103.8892 N   0  0  0  0  0  0  0  0  0  0  0  0
   47.1419  -26.1009 -104.3575 C   0  0  2  0  0  0  0  0  0  0  0  0
   45.9354  -26.6943 -105.0538 C   0  0  0  0  0  0  0  0  0  0  0  0
   44.8171  -26.2600 -104.8224 O   0  0  0  0  0  0  0  0  0  0  0  0
   47.5415  -27.0157 -103.1917 C   0  0  0  0  0  0  0  0  0  0  0  0
   48.7259  -26.4367 -102.4308 C   0  0  0  0  0  0  0  0  0  0  0  0
   50.3424  -26.8062 -103.2142 S   0  0  2  0  0  0  0  0  0  0  0  0
   50.0740  -26.4251 -104.9756 C   0  0  0  0  0  0  0  0  0  0  0  0
   50.1102  -28.5815 -103.2712 C   0  0  0  0  0  0  0  0  0  0  0  0
   50.5271  -29.2879 -102.0087 C   0  0  1  0  0  0  0  0  0  0  0  0
   49.5250  -29.0340 -101.0095 O   0  0  0  0  0  0  0  0  0  0  0  0
   50.4014  -30.7114 -102.3765 C   0  0  1  0  0  0  0  0  0  0  0  0
   51.6791  -31.2243 -102.7504 O   0  0  0  0  0  0  0  0  0  0  0  0
   49.9547  -31.3386 -101.0923 C   0  0  1  0  0  0  0  0  0  0  0  0
   51.0955  -31.6934 -100.2836 O   0  0  0  0  0  0  0  0  0  0  0  0
   49.1025  -30.2592 -100.3596 C   0  0  2  0  0  0  0  0  0  0  0  0
   46.0728  -27.5855 -105.8735 O   0  0  0  0  0  0  0  0  0  0  0  0
   44.8651  -32.0137 -103.0363 N   0  0  0  0  0  0  0  0  0  0  0  0
   46.1724  -32.2317 -103.3212 C   0  0  0  0  0  0  0  0  0  0  0  0
   47.1594  -31.7608 -102.5306 N   0  0  0  0  0  0  0  0  0  0  0  0
   46.8775  -30.9793 -101.4754 C   0  0  0  0  0  0  0  0  0  0  0  0
   45.5002  -30.6872 -101.1589 C   0  0  0  0  0  0  0  0  0  0  0  0
   44.4861  -31.2511 -101.9890 C   0  0  0  0  0  0  0  0  0  0  0  0
   43.1488  -31.0205 -101.7376 N   0  0  0  0  0  0  0  0  0  0  0  0
   45.4985  -29.8951 -100.0802 N   0  0  0  0  0  0  0  0  0  0  0  0
   46.7268  -29.6718  -99.7186 C   0  0  0  0  0  0  0  0  0  0  0  0
   47.6222  -30.3203 -100.5367 N   0  0  0  0  0  0  0  0  0  0  0  0
  2  1  1  1  0  0  0
  2  3  1  0  0  0  0
  2  5  1  0  0  0  0
  3  4  1  0  0  0  0
  3 17  1  0  0  0  0
  5  6  1  0  0  0  0
  7  6  1  1  0  0  0
  7  8  1  0  0  0  0
  7  9  1  0  0  0  0
 10  9  1  6  0  0  0
 10 11  1  0  0  0  0
 10 12  1  0  0  0  0
 11 16  1  0  0  0  0
 12 13  1  1  0  0  0
 12 14  1  0  0  0  0
 14 15  1  1  0  0  0
 14 16  1  0  0  0  0
 16 27  1  6  0  0  0
 18 19  2  0  0  0  0
 18 23  1  0  0  0  0
 19 20  1  0  0  0  0
 20 21  2  0  0  0  0
 21 22  1  0  0  0  0
 21 27  1  0  0  0  0
 22 23  2  0  0  0  0
 22 25  1  0  0  0  0
 23 24  1  0  0  0  0
 25 26  2  0  0  0  0
 26 27  1  0  0  0  0
M  END
>  <CHROM.1>
-21.81664895,-57.36690160,-82.26067324,46.48659732,-86.25514687,74.67344878
96.58701004,47.88527693,-29.10272161,-102.53429045,1.55783749,-0.12621344
-0.55119243

>  <Name>
ligand

>  <RI>
0

>  <Rbt.Current_Directory>
/home/itssahil/PROJECTS/Mol_Feturizer/New_Systems/rnas/4L81

>  <Rbt.Executable>
rbdock ($Id: //depot/dev/client3/rdock/2013.1/src/exe/rbdock.cxx#4 $)

>  <Rbt.Library>
libRbt.so (2013.1, Build901 2013/11/27)

>  <Rbt.Parameter_File>
/export/apps/rDock/src/rDock_2013.1_src/data/scripts/dock_solv.prm

>  <Rbt.Receptor>
prm/pocket_docking_7.prm

>  <SCORE>
-16.3825

>  <SCORE.INTER>
-16.3199

>  <SCORE.INTER.CONST>
1

>  <SCORE.INTER.POLAR>
0

>  <SCORE.INTER.ROT>
7

>  <SCORE.INTER.SOLV>
17.8265

>  <SCORE.INTER.VDW>
-25.0887

>  <SCORE.INTER.norm>
-0.60444

>  <SCORE.INTRA>
-0.0626138

>  <SCORE.INTRA.DIHEDRAL>
-1.54908

>  <SCORE.INTRA.DIHEDRAL.0>
8.34559

>  <SCORE.INTRA.POLAR>
0

>  <SCORE.INTRA.POLAR.0>
0

>  <SCORE.INTRA.REPUL>
0

>  <SCORE.INTRA.REPUL.0>
0

>  <SCORE.INTRA.SOLV>
0.646102

>  <SCORE.INTRA.SOLV.lig_0>
-48.829

>  <SCORE.INTRA.VDW>
0.388878

>  <SCORE.INTRA.VDW.0>
-1.77092

>  <SCORE.INTRA.norm>
-0.00231903

>  <SCORE.RESTR>
0

>  <SCORE.RESTR.CAVITY>
0

>  <SCORE.RESTR.norm>
0

>  <SCORE.SYSTEM>
0

>  <SCORE.SYSTEM.CONST>
0

>  <SCORE.SYSTEM.DIHEDRAL>
0

>  <SCORE.SYSTEM.SOLV>
0

>  <SCORE.SYSTEM.norm>
0

>  <SCORE.heavy>
27

>  <SCORE.norm>
-0.606759

>  <RMSD>
1.078

$$$$
ligand
 OpenBabel11021811503D
libRbt.so/2013.1/901 2013/11/27
 27 29  0  0  0  0  0  0  0  0999 V2000
   45.6776  -25.1282 -105.2289 N   0  0  0  0  0  0  0  0  0  0  0  0
   45.9454  -26.5705 -105.1995 C   0  0  2  0  0  0  0  0  0  0  0  0
   44.9739  -27.2456 -104.2544 C   0  0  0  0  0  0  0  0  0  0  0  0
   44.4531  -26.6092 -103.3508 O   0  0  0  0  0  0  0  0  0  0  0  0
   47.3773  -26.8637 -104.7316 C   0  0  0  0  0  0  0  0  0  0  0  0
   47.6312  -26.2627 -103.3564 C   0  0  0  0  0  0  0  0  0  0  0  0
   49.3836  -26.3755 -102.8275 S   0  0  2  0  0  0  0  0  0  0  0  0
   50.3199  -25.8207 -104.2886 C   0  0  0  0  0  0  0  0  0  0  0  0
   49.5247  -28.1463 -103.0578 C   0  0  0  0  0  0  0  0  0  0  0  0
   49.9946  -28.8814 -101.8307 C   0  0  1  0  0  0  0  0  0  0  0  0
   48.9826  -28.7432 -100.8189 O   0  0  0  0  0  0  0  0  0  0  0  0
   49.9637  -30.2913 -102.2651 C   0  0  1  0  0  0  0  0  0  0  0  0
   51.2713  -30.6983 -102.6650 O   0  0  0  0  0  0  0  0  0  0  0  0
   49.5668  -31.0069 -101.0111 C   0  0  1  0  0  0  0  0  0  0  0  0
   50.7329  -31.3212 -100.2220 O   0  0  0  0  0  0  0  0  0  0  0  0
   48.6471  -30.0234 -100.2269 C   0  0  2  0  0  0  0  0  0  0  0  0
   44.6789  -28.4180 -104.4071 O   0  0  0  0  0  0  0  0  0  0  0  0
   44.5259  -31.9729 -102.9496 N   0  0  0  0  0  0  0  0  0  0  0  0
   45.8439  -32.0961 -103.2422 C   0  0  0  0  0  0  0  0  0  0  0  0
   46.8002  -31.5848 -102.4391 N   0  0  0  0  0  0  0  0  0  0  0  0
   46.4708  -30.8549 -101.3610 C   0  0  0  0  0  0  0  0  0  0  0  0
   45.0783  -30.6633 -101.0344 C   0  0  0  0  0  0  0  0  0  0  0  0
   44.1009  -31.2679 -101.8797 C   0  0  0  0  0  0  0  0  0  0  0  0
   42.7521  -31.1331 -101.6202 N   0  0  0  0  0  0  0  0  0  0  0  0
   45.0279  -29.9052  -99.9328 N   0  0  0  0  0  0  0  0  0  0  0  0
   46.2400  -29.6125  -99.5661 C   0  0  0  0  0  0  0  0  0  0  0  0
   47.1735  -30.1764 -100.4041 N   0  0  0  0  0  0  0  0  0  0  0  0
  2  1  1  1  0  0  0
  2  3  1  0  0  0  0
  2  5  1  0  0  0  0
  3  4  1  0  0  0  0
  3 17  1  0  0  0  0
  5  6  1  0  0  0  0
  7  6  1  6  0  0  0
  7  8  1  0  0  0  0
  7  9  1  0  0  0  0
 10  9  1  6  0  0  0
 10 11  1  0  0  0  0
 10 12  1  0  0  0  0
 11 16  1  0  0  0  0
 12 13  1  1  0  0  0
 12 14  1  0  0  0  0
 14 15  1  1  0  0  0
 14 16  1  0  0  0  0
 16 27  1  6  0  0  0
 18 19  2  0  0  0  0
 18 23  1  0  0  0  0
 19 20  1  0  0  0  0
 20 21  2  0  0  0  0
 21 22  1  0  0  0  0
 21 27  1  0  0  0  0
 22 23  2  0  0  0  0
 22 25  1  0  0  0  0
 23 24  1  0  0  0  0
 25 26  2  0  0  0  0
 26 27  1  0  0  0  0
M  END
>  <CHROM.1>
-24.26773487,57.39084715,-172.24978686,46.46043722,-125.07699415,65.27500242
97.60542017,47.31819722,-28.99761620,-102.41902537,1.00059286,-0.16115794
-0.57454260

>  <Name>
ligand

>  <RI>
0

>  <Rbt.Current_Directory>
/home/itssahil/PROJECTS/Mol_Feturizer/New_Systems/rnas/4L81

>  <Rbt.Executable>
rbdock ($Id: //depot/dev/client3/rdock/2013.1/src/exe/rbdock.cxx#4 $)

>  <Rbt.Library>
libRbt.so (2013.1, Build901 2013/11/27)

>  <Rbt.Parameter_File>
/export/apps/rDock/src/rDock_2013.1_src/data/scripts/dock_solv.prm

>  <Rbt.Receptor>
prm/pocket_docking_4.prm

>  <SCORE>
-15.3743

>  <SCORE.INTER>
-15.1601

>  <SCORE.INTER.CONST>
1

>  <SCORE.INTER.POLAR>
0

>  <SCORE.INTER.ROT>
7

>  <SCORE.INTER.SOLV>
20.0543

>  <SCORE.INTER.VDW>
-25.0582

>  <SCORE.INTER.norm>
-0.561486

>  <SCORE.INTRA>
-0.214127

>  <SCORE.INTRA.DIHEDRAL>
-0.187861

>  <SCORE.INTRA.DIHEDRAL.0>
8.34559

>  <SCORE.INTRA.POLAR>
0

>  <SCORE.INTRA.POLAR.0>
0

>  <SCORE.INTRA.REPUL>
0

>  <SCORE.INTRA.REPUL.0>
0

>  <SCORE.INTRA.SOLV>
-0.579145

>  <SCORE.INTRA.SOLV.lig_0>
-48.829

>  <SCORE.INTRA.VDW>
0.169376

>  <SCORE.INTRA.VDW.0>
-1.77092

>  <SCORE.INTRA.norm>
-0.00793061

>  <SCORE.RESTR>
0

>  <SCORE.RESTR.CAVITY>
0

>  <SCORE.RESTR.norm>
0

>  <SCORE.SYSTEM>
0

>  <SCORE.SYSTEM.CONST>
0

>  <SCORE.SYSTEM.DIHEDRAL>
0

>  <SCORE.SYSTEM.SOLV>
0

>  <SCORE.SYSTEM.norm>
0

>  <SCORE.heavy>
27

>  <SCORE.norm>
-0.569417

>  <RMSD>
1.112

$$$$
ligand
 OpenBabel11021811503D
libRbt.so/2013.1/901 2013/11/27
 27 29  0  0  0  0  0  0  0  0999 V2000
   46.0668  -25.5199 -105.6551 N   0  0  0  0  0  0  0  0  0  0  0  0
   45.7234  -26.7495 -104.9321 C   0  0  2  0  0  0  0  0  0  0  0  0
   44.2933  -26.6648 -104.4417 C   0  0  0  0  0  0  0  0  0  0  0  0
   44.0496  -26.7189 -103.2458 O   0  0  0  0  0  0  0  0  0  0  0  0
   46.6488  -26.9663 -103.7270 C   0  0  0  0  0  0  0  0  0  0  0  0
   48.1014  -26.7185 -104.1085 C   0  0  0  0  0  0  0  0  0  0  0  0
   49.2526  -26.8174 -102.6844 S   0  0  2  0  0  0  0  0  0  0  0  0
   50.6346  -25.7298 -103.1605 C   0  0  0  0  0  0  0  0  0  0  0  0
   49.9654  -28.3958 -103.1418 C   0  0  0  0  0  0  0  0  0  0  0  0
   50.4369  -29.2109 -101.9670 C   0  0  1  0  0  0  0  0  0  0  0  0
   49.4819  -29.0475 -100.9048 O   0  0  0  0  0  0  0  0  0  0  0  0
   50.2904  -30.5964 -102.4533 C   0  0  1  0  0  0  0  0  0  0  0  0
   51.5483  -31.0728 -102.9288 O   0  0  0  0  0  0  0  0  0  0  0  0
   49.9004  -31.3353 -101.2108 C   0  0  1  0  0  0  0  0  0  0  0  0
   51.0756  -31.7593 -100.4893 O   0  0  0  0  0  0  0  0  0  0  0  0
   49.0855  -30.3260 -100.3475 C   0  0  2  0  0  0  0  0  0  0  0  0
   43.3787  -26.5089 -105.2317 O   0  0  0  0  0  0  0  0  0  0  0  0
   44.7258  -31.8565 -102.9643 N   0  0  0  0  0  0  0  0  0  0  0  0
   46.0182  -32.0502 -103.3249 C   0  0  0  0  0  0  0  0  0  0  0  0
   47.0414  -31.6453 -102.5438 N   0  0  0  0  0  0  0  0  0  0  0  0
   46.8100  -30.9528 -101.4167 C   0  0  0  0  0  0  0  0  0  0  0  0
   45.4494  -30.6878 -101.0155 C   0  0  0  0  0  0  0  0  0  0  0  0
   44.3971  -31.1821 -101.8422 C   0  0  0  0  0  0  0  0  0  0  0  0
   43.0733  -30.9730 -101.5127 N   0  0  0  0  0  0  0  0  0  0  0  0
   45.4991  -29.9866  -99.8767 N   0  0  0  0  0  0  0  0  0  0  0  0
   46.7432  -29.7934  -99.5539 C   0  0  0  0  0  0  0  0  0  0  0  0
   47.5986  -30.3726 -100.4619 N   0  0  0  0  0  0  0  0  0  0  0  0
  2  1  1  1  0  0  0
  2  3  1  0  0  0  0
  2  5  1  0  0  0  0
  3  4  1  0  0  0  0
  3 17  1  0  0  0  0
  5  6  1  0  0  0  0
  7  6  1  6  0  0  0
  7  8  1  0  0  0  0
  7  9  1  0  0  0  0
 10  9  1  6  0  0  0
 10 11  1  0  0  0  0
 10 12  1  0  0  0  0
 11 16  1  0  0  0  0
 12 13  1  1  0  0  0
 12 14  1  0  0  0  0
 14 15  1  1  0  0  0
 14 16  1  0  0  0  0
 16 27  1  6  0  0  0
 18 19  2  0  0  0  0
 18 23  1  0  0  0  0
 19 20  1  0  0  0  0
 20 21  2  0  0  0  0
 21 22  1  0  0  0  0
 21 27  1  0  0  0  0
 22 23  2  0  0  0  0
 22 25  1  0  0  0  0
 23 24  1  0  0  0  0
 25 26  2  0  0  0  0
 26 27  1  0  0  0  0
M  END
>  <CHROM.1>
-119.26909307,-45.25047984,175.03095251,-152.57879053,-150.37464450,39.05399939
96.98361625,47.45049379,-29.08329996,-102.44882907,-2.47227909,0.11784098
2.60415345

>  <Name>
ligand

>  <RI>
0

>  <Rbt.Current_Directory>
/home/itssahil/PROJECTS/Mol_Feturizer/New_Systems/rnas/4L81

>  <Rbt.Executable>
rbdock ($Id: //depot/dev/client3/rdock/2013.1/src/exe/rbdock.cxx#4 $)

>  <Rbt.Library>
libRbt.so (2013.1, Build901 2013/11/27)

>  <Rbt.Parameter_File>
/export/apps/rDock/src/rDock_2013.1_src/data/scripts/dock_solv.prm

>  <Rbt.Receptor>
prm/pocket_docking_2.prm

>  <SCORE>
-15.753

>  <SCORE.INTER>
-17.3067

>  <SCORE.INTER.CONST>
1

>  <SCORE.INTER.POLAR>
0

>  <SCORE.INTER.ROT>
7

>  <SCORE.INTER.SOLV>
17.9422

>  <SCORE.INTER.VDW>
-25.7852

>  <SCORE.INTER.norm>
-0.64099

>  <SCORE.INTRA>
1.51907

>  <SCORE.INTRA.DIHEDRAL>
3.03406

>  <SCORE.INTRA.DIHEDRAL.0>
8.34559

>  <SCORE.INTRA.POLAR>
0

>  <SCORE.INTRA.POLAR.0>
0

>  <SCORE.INTRA.REPUL>
0

>  <SCORE.INTRA.REPUL.0>
0

>  <SCORE.INTRA.SOLV>
-0.412734

>  <SCORE.INTRA.SOLV.lig_0>
-48.829

>  <SCORE.INTRA.VDW>
0.208412

>  <SCORE.INTRA.VDW.0>
-1.77092

>  <SCORE.INTRA.norm>
0.056262

>  <SCORE.RESTR>
0.0346109

>  <SCORE.RESTR.CAVITY>
0.0346109

>  <SCORE.RESTR.norm>
0.00128188

>  <SCORE.SYSTEM>
0

>  <SCORE.SYSTEM.CONST>
0

>  <SCORE.SYSTEM.DIHEDRAL>
0

>  <SCORE.SYSTEM.SOLV>
0

>  <SCORE.SYSTEM.norm>
0

>  <SCORE.heavy>
27

>  <SCORE.norm>
-0.583446

>  <RMSD>
1.131

$$$$
ligand
 OpenBabel11021811503D
libRbt.so/2013.1/901 2013/11/27
 27 29  0  0  0  0  0  0  0  0999 V2000
   45.7725  -25.0937 -105.0876 N   0  0  0  0  0  0  0  0  0  0  0  0
   45.9570  -26.5460 -104.9898 C   0  0  2  0  0  0  0  0  0  0  0  0
   45.0085  -27.1070 -103.9514 C   0  0  0  0  0  0  0  0  0  0  0  0
   44.5605  -28.2370 -104.0751 O   0  0  0  0  0  0  0  0  0  0  0  0
   47.3957  -26.9010 -104.5905 C   0  0  0  0  0  0  0  0  0  0  0  0
   47.7337  -26.3304 -103.2205 C   0  0  0  0  0  0  0  0  0  0  0  0
   49.5165  -26.4462 -102.8059 S   0  0  2  0  0  0  0  0  0  0  0  0
   50.3574  -25.8970 -104.3260 C   0  0  0  0  0  0  0  0  0  0  0  0
   49.6384  -28.2179 -103.0406 C   0  0  0  0  0  0  0  0  0  0  0  0
   50.0522  -28.9661 -101.8013 C   0  0  1  0  0  0  0  0  0  0  0  0
   49.0223  -28.7885 -100.8141 O   0  0  0  0  0  0  0  0  0  0  0  0
   49.9801  -30.3752 -102.2337 C   0  0  1  0  0  0  0  0  0  0  0  0
   51.2811  -30.8306 -102.6018 O   0  0  0  0  0  0  0  0  0  0  0  0
   49.5280  -31.0725 -100.9881 C   0  0  1  0  0  0  0  0  0  0  0  0
   50.6630  -31.4268 -100.1711 O   0  0  0  0  0  0  0  0  0  0  0  0
   48.6265  -30.0541 -100.2277 C   0  0  2  0  0  0  0  0  0  0  0  0
   44.7108  -26.4502 -102.9691 O   0  0  0  0  0  0  0  0  0  0  0  0
   44.4976  -31.9865 -102.9509 N   0  0  0  0  0  0  0  0  0  0  0  0
   45.8162  -32.1842 -103.1961 C   0  0  0  0  0  0  0  0  0  0  0  0
   46.7723  -31.6665 -102.3968 N   0  0  0  0  0  0  0  0  0  0  0  0
   46.4467  -30.8586 -101.3746 C   0  0  0  0  0  0  0  0  0  0  0  0
   45.0558  -30.5875 -101.1019 C   0  0  0  0  0  0  0  0  0  0  0  0
   44.0757  -31.1999 -101.9384 C   0  0  0  0  0  0  0  0  0  0  0  0
   42.7278  -30.9914 -101.7279 N   0  0  0  0  0  0  0  0  0  0  0  0
   45.0095  -29.7620 -100.0497 N   0  0  0  0  0  0  0  0  0  0  0  0
   46.2231  -29.5000  -99.6650 C   0  0  0  0  0  0  0  0  0  0  0  0
   47.1529  -30.1538 -100.4394 N   0  0  0  0  0  0  0  0  0  0  0  0
  2  1  1  1  0  0  0
  2  3  1  0  0  0  0
  2  5  1  0  0  0  0
  3  4  1  0  0  0  0
  3 17  1  0  0  0  0
  5  6  1  0  0  0  0
  7  6  1  6  0  0  0
  7  8  1  0  0  0  0
  7  9  1  0  0  0  0
 10  9  1  6  0  0  0
 10 11  1  0  0  0  0
 10 12  1  0  0  0  0
 11 16  1  0  0  0  0
 12 13  1  1  0  0  0
 12 14  1  0  0  0  0
 14 15  1  1  0  0  0
 14 16  1  0  0  0  0
 16 27  1  6  0  0  0
 18 19  2  0  0  0  0
 18 23  1  0  0  0  0
 19 20  1  0  0  0  0
 20 21  2  0  0  0  0
 21 22  1  0  0  0  0
 21 27  1  0  0  0  0
 22 23  2  0  0  0  0
 22 25  1  0  0  0  0
 23 24  1  0  0  0  0
 25 26  2  0  0  0  0
 26 27  1  0  0  0  0
M  END
>  <CHROM.1>
148.50464930,61.69989553,-169.49591763,44.95125063,-119.22527601,63.81927117
100.98246280,47.34133602,-29.00021043,-102.36361924,0.78579340,-0.13245963
-0.53381690

>  <Name>
ligand

>  <RI>
0

>  <Rbt.Current_Directory>
/home/itssahil/PROJECTS/Mol_Feturizer/New_Systems/rnas/4L81

>  <Rbt.Executable>
rbdock ($Id: //depot/dev/client3/rdock/2013.1/src/exe/rbdock.cxx#4 $)

>  <Rbt.Library>
libRbt.so (2013.1, Build901 2013/11/27)

>  <Rbt.Parameter_File>
/export/apps/rDock/src/rDock_2013.1_src/data/scripts/dock_solv.prm

>  <Rbt.Receptor>
prm/pocket_docking_3.prm

>  <SCORE>
-15.9622

>  <SCORE.INTER>
-15.63

>  <SCORE.INTER.CONST>
1

>  <SCORE.INTER.POLAR>
0

>  <SCORE.INTER.ROT>
7

>  <SCORE.INTER.SOLV>
20.0539

>  <SCORE.INTER.VDW>
-25.3713

>  <SCORE.INTER.norm>
-0.57889

>  <SCORE.INTRA>
-0.332227

>  <SCORE.INTRA.DIHEDRAL>
-0.349656

>  <SCORE.INTRA.DIHEDRAL.0>
8.34559

>  <SCORE.INTRA.POLAR>
0

>  <SCORE.INTRA.POLAR.0>
0

>  <SCORE.INTRA.REPUL>
0

>  <SCORE.INTRA.REPUL.0>
0

>  <SCORE.INTRA.SOLV>
-0.561223

>  <SCORE.INTRA.SOLV.lig_0>
-48.829

>  <SCORE.INTRA.VDW>
0.123212

>  <SCORE.INTRA.VDW.0>
-1.77092

>  <SCORE.INTRA.norm>
-0.0123047

>  <SCORE.RESTR>
0

>  <SCORE.RESTR.CAVITY>
0

>  <SCORE.RESTR.norm>
0

>  <SCORE.SYSTEM>
0

>  <SCORE.SYSTEM.CONST>
0

>  <SCORE.SYSTEM.DIHEDRAL>
0

>  <SCORE.SYSTEM.SOLV>
0

>  <SCORE.SYSTEM.norm>
0

>  <SCORE.heavy>
27

>  <SCORE.norm>
-0.591194

>  <RMSD>
1.137

$$$$
ligand
 OpenBabel11021811503D
libRbt.so/2013.1/901 2013/11/27
 27 29  0  0  0  0  0  0  0  0999 V2000
   46.1293  -25.5307 -105.6954 N   0  0  0  0  0  0  0  0  0  0  0  0
   46.5728  -26.3831 -104.5865 C   0  0  2  0  0  0  0  0  0  0  0  0
   45.3689  -27.0254 -103.9303 C   0  0  0  0  0  0  0  0  0  0  0  0
   45.0561  -28.1730 -104.2096 O   0  0  0  0  0  0  0  0  0  0  0  0
   47.3398  -25.5740 -103.5318 C   0  0  0  0  0  0  0  0  0  0  0  0
   48.0764  -26.4973 -102.5716 C   0  0  0  0  0  0  0  0  0  0  0  0
   49.8774  -26.6000 -102.9018 S   0  0  2  0  0  0  0  0  0  0  0  0
   50.0436  -26.0108 -104.6179 C   0  0  0  0  0  0  0  0  0  0  0  0
   49.9015  -28.3652 -103.2061 C   0  0  0  0  0  0  0  0  0  0  0  0
   50.3767  -29.1763 -102.0301 C   0  0  1  0  0  0  0  0  0  0  0  0
   49.4303  -29.0014 -100.9621 O   0  0  0  0  0  0  0  0  0  0  0  0
   50.2187  -30.5636 -102.5075 C   0  0  1  0  0  0  0  0  0  0  0  0
   51.4705  -31.0500 -102.9892 O   0  0  0  0  0  0  0  0  0  0  0  0
   49.8334  -31.2932 -101.2579 C   0  0  1  0  0  0  0  0  0  0  0  0
   51.0113  -31.7199 -100.5424 O   0  0  0  0  0  0  0  0  0  0  0  0
   49.0306  -30.2743 -100.3947 C   0  0  2  0  0  0  0  0  0  0  0  0
   44.7232  -26.4162 -103.0955 O   0  0  0  0  0  0  0  0  0  0  0  0
   44.6422  -31.8591 -102.9301 N   0  0  0  0  0  0  0  0  0  0  0  0
   45.9307  -32.0756 -103.2918 C   0  0  0  0  0  0  0  0  0  0  0  0
   46.9621  -31.6522 -102.5315 N   0  0  0  0  0  0  0  0  0  0  0  0
   46.7434  -30.9194 -101.4275 C   0  0  0  0  0  0  0  0  0  0  0  0
   45.3875  -30.6298 -101.0273 C   0  0  0  0  0  0  0  0  0  0  0  0
   44.3260  -31.1439 -101.8299 C   0  0  0  0  0  0  0  0  0  0  0  0
   43.0060  -30.9130 -101.4997 N   0  0  0  0  0  0  0  0  0  0  0  0
   45.4499  -29.8902  -99.9137 N   0  0  0  0  0  0  0  0  0  0  0  0
   46.6976  -29.6960  -99.6055 C   0  0  0  0  0  0  0  0  0  0  0  0
   47.5426  -30.3130 -100.4982 N   0  0  0  0  0  0  0  0  0  0  0  0
  2  1  1  6  0  0  0
  2  3  1  0  0  0  0
  2  5  1  0  0  0  0
  3  4  1  0  0  0  0
  3 17  1  0  0  0  0
  5  6  1  0  0  0  0
  7  6  1  6  0  0  0
  7  8  1  0  0  0  0
  7  9  1  0  0  0  0
 10  9  1  6  0  0  0
 10 11  1  0  0  0  0
 10 12  1  0  0  0  0
 11 16  1  0  0  0  0
 12 13  1  1  0  0  0
 12 14  1  0  0  0  0
 14 15  1  1  0  0  0
 14 16  1  0  0  0  0
 16 27  1  6  0  0  0
 18 19  2  0  0  0  0
 18 23  1  0  0  0  0
 19 20  1  0  0  0  0
 20 21  2  0  0  0  0
 21 22  1  0  0  0  0
 21 27  1  0  0  0  0
 22 23  2  0  0  0  0
 22 25  1  0  0  0  0
 23 24  1  0  0  0  0
 25 26  2  0  0  0  0
 26 27  1  0  0  0  0
M  END
>  <CHROM.1>
99.01834624,-166.34996624,103.25442773,-19.24555535,-100.09487082,64.25901976
98.63875822,47.62201840,-29.04883576,-102.40445183,1.35668053,-0.07230091
-0.50347945

>  <Name>
ligand

>  <RI>
0

>  <Rbt.Current_Directory>
/home/itssahil/PROJECTS/Mol_Feturizer/New_Systems/rnas/4L81

>  <Rbt.Executable>
rbdock ($Id: //depot/dev/client3/rdock/2013.1/src/exe/rbdock.cxx#4 $)

>  <Rbt.Library>
libRbt.so (2013.1, Build901 2013/11/27)

>  <Rbt.Parameter_File>
/export/apps/rDock/src/rDock_2013.1_src/data/scripts/dock_solv.prm

>  <Rbt.Receptor>
prm/pocket_docking_2.prm

>  <SCORE>
-13.8797

>  <SCORE.INTER>
-17.2292

>  <SCORE.INTER.CONST>
1

>  <SCORE.INTER.POLAR>
0

>  <SCORE.INTER.ROT>
7

>  <SCORE.INTER.SOLV>
16.9947

>  <SCORE.INTER.VDW>
-25.4177

>  <SCORE.INTER.norm>
-0.638119

>  <SCORE.INTRA>
3.31638

>  <SCORE.INTRA.DIHEDRAL>
6.7645

>  <SCORE.INTRA.DIHEDRAL.0>
8.34559

>  <SCORE.INTRA.POLAR>
0

>  <SCORE.INTRA.POLAR.0>
0

>  <SCORE.INTRA.REPUL>
0

>  <SCORE.INTRA.REPUL.0>
0

>  <SCORE.INTRA.SOLV>
-0.695896

>  <SCORE.INTRA.SOLV.lig_0>
-48.829

>  <SCORE.INTRA.VDW>
0.282084

>  <SCORE.INTRA.VDW.0>
-1.77092

>  <SCORE.INTRA.norm>
0.122829

>  <SCORE.RESTR>
0.03311

>  <SCORE.RESTR.CAVITY>
0.03311

>  <SCORE.RESTR.norm>
0.00122629

>  <SCORE.SYSTEM>
0

>  <SCORE.SYSTEM.CONST>
0

>  <SCORE.SYSTEM.DIHEDRAL>
0

>  <SCORE.SYSTEM.SOLV>
0

>  <SCORE.SYSTEM.norm>
0

>  <SCORE.heavy>
27

>  <SCORE.norm>
-0.514063

>  <RMSD>
1.161

$$$$
ligand
 OpenBabel11021811503D
libRbt.so/2013.1/901 2013/11/27
 27 29  0  0  0  0  0  0  0  0999 V2000
   46.1669  -28.1556 -105.4752 N   0  0  0  0  0  0  0  0  0  0  0  0
   46.2091  -26.7696 -104.9957 C   0  0  2  0  0  0  0  0  0  0  0  0
   45.0474  -25.9961 -105.5831 C   0  0  0  0  0  0  0  0  0  0  0  0
   43.9812  -25.9435 -104.9889 O   0  0  0  0  0  0  0  0  0  0  0  0
   47.5191  -26.0786 -105.3982 C   0  0  0  0  0  0  0  0  0  0  0  0
   48.7095  -26.9987 -105.1676 C   0  0  0  0  0  0  0  0  0  0  0  0
   49.1326  -27.2074 -103.3954 S   0  0  2  0  0  0  0  0  0  0  0  0
   50.5533  -26.0936 -103.1490 C   0  0  0  0  0  0  0  0  0  0  0  0
   50.0173  -28.7509 -103.6049 C   0  0  0  0  0  0  0  0  0  0  0  0
   50.4956  -29.3554 -102.3116 C   0  0  1  0  0  0  0  0  0  0  0  0
   49.5309  -29.0395 -101.2935 O   0  0  0  0  0  0  0  0  0  0  0  0
   50.3767  -30.8040 -102.5668 C   0  0  1  0  0  0  0  0  0  0  0  0
   51.6460  -31.3280 -102.9541 O   0  0  0  0  0  0  0  0  0  0  0  0
   49.9918  -31.3384 -101.2221 C   0  0  1  0  0  0  0  0  0  0  0  0
   51.1696  -31.6177 -100.4371 O   0  0  0  0  0  0  0  0  0  0  0  0
   49.1536  -30.2175 -100.5372 C   0  0  2  0  0  0  0  0  0  0  0  0
   45.1763  -25.3935 -106.6344 O   0  0  0  0  0  0  0  0  0  0  0  0
   44.8377  -32.0073 -103.0607 N   0  0  0  0  0  0  0  0  0  0  0  0
   46.1351  -32.1870 -103.4106 C   0  0  0  0  0  0  0  0  0  0  0  0
   47.1466  -31.7119 -102.6543 N   0  0  0  0  0  0  0  0  0  0  0  0
   46.8962  -30.9633 -101.5678 C   0  0  0  0  0  0  0  0  0  0  0  0
   45.5288  -30.7120 -101.1812 C   0  0  0  0  0  0  0  0  0  0  0  0
   44.4905  -31.2796 -101.9781 C   0  0  0  0  0  0  0  0  0  0  0  0
   43.1614  -31.0873 -101.6599 N   0  0  0  0  0  0  0  0  0  0  0  0
   45.5591  -29.9467 -100.0838 N   0  0  0  0  0  0  0  0  0  0  0  0
   46.7974  -29.7030  -99.7733 C   0  0  0  0  0  0  0  0  0  0  0  0
   47.6685  -30.3097 -100.6478 N   0  0  0  0  0  0  0  0  0  0  0  0
  2  1  1  6  0  0  0
  2  3  1  0  0  0  0
  2  5  1  0  0  0  0
  3  4  1  0  0  0  0
  3 17  1  0  0  0  0
  5  6  1  0  0  0  0
  7  6  1  6  0  0  0
  7  8  1  0  0  0  0
  7  9  1  0  0  0  0
 10  9  1  6  0  0  0
 10 11  1  0  0  0  0
 10 12  1  0  0  0  0
 11 16  1  0  0  0  0
 12 13  1  1  0  0  0
 12 14  1  0  0  0  0
 14 15  1  1  0  0  0
 14 16  1  0  0  0  0
 16 27  1  6  0  0  0
 18 19  2  0  0  0  0
 18 23  1  0  0  0  0
 19 20  1  0  0  0  0
 20 21  2  0  0  0  0
 21 22  1  0  0  0  0
 21 27  1  0  0  0  0
 22 23  2  0  0  0  0
 22 25  1  0  0  0  0
 23 24  1  0  0  0  0
 25 26  2  0  0  0  0
 26 27  1  0  0  0  0
M  END
>  <CHROM.1>
90.46412762,-43.77404641,-73.17664926,-100.69435050,-176.45966441,33.43986436
90.83888882,47.65521584,-29.14371536,-102.86817126,2.07205094,-0.11395123
-0.65284813

>  <Name>
ligand

>  <RI>
0

>  <Rbt.Current_Directory>
/home/itssahil/PROJECTS/Mol_Feturizer/New_Systems/rnas/4L81

>  <Rbt.Executable>
rbdock ($Id: //depot/dev/client3/rdock/2013.1/src/exe/rbdock.cxx#4 $)

>  <Rbt.Library>
libRbt.so (2013.1, Build901 2013/11/27)

>  <Rbt.Parameter_File>
/export/apps/rDock/src/rDock_2013.1_src/data/scripts/dock_solv.prm

>  <Rbt.Receptor>
prm/pocket_docking_2.prm

>  <SCORE>
-14.8803

>  <SCORE.INTER>
-15.7898

>  <SCORE.INTER.CONST>
1

>  <SCORE.INTER.POLAR>
0

>  <SCORE.INTER.ROT>
7

>  <SCORE.INTER.SOLV>
14.9609

>  <SCORE.INTER.VDW>
-23.7802

>  <SCORE.INTER.norm>
-0.584809

>  <SCORE.INTRA>
0.727152

>  <SCORE.INTRA.DIHEDRAL>
1.19108

>  <SCORE.INTRA.DIHEDRAL.0>
8.34559

>  <SCORE.INTRA.POLAR>
0

>  <SCORE.INTRA.POLAR.0>
0

>  <SCORE.INTRA.REPUL>
0

>  <SCORE.INTRA.REPUL.0>
0

>  <SCORE.INTRA.SOLV>
0.504355

>  <SCORE.INTRA.SOLV.lig_0>
-48.829

>  <SCORE.INTRA.VDW>
-0.120564

>  <SCORE.INTRA.VDW.0>
-1.77092

>  <SCORE.INTRA.norm>
0.0269316

>  <SCORE.RESTR>
0.182373

>  <SCORE.RESTR.CAVITY>
0.182373

>  <SCORE.RESTR.norm>
0.00675454

>  <SCORE.SYSTEM>
0

>  <SCORE.SYSTEM.CONST>
0

>  <SCORE.SYSTEM.DIHEDRAL>
0

>  <SCORE.SYSTEM.SOLV>
0

>  <SCORE.SYSTEM.norm>
0

>  <SCORE.heavy>
27

>  <SCORE.norm>
-0.551123

>  <RMSD>
1.163

$$$$
ligand
 OpenBabel11021811503D
libRbt.so/2013.1/901 2013/11/27
 27 29  0  0  0  0  0  0  0  0999 V2000
   44.7954  -28.2068 -101.5730 N   0  0  0  0  0  0  0  0  0  0  0  0
   45.6321  -27.5403 -102.5773 C   0  0  2  0  0  0  0  0  0  0  0  0
   45.4725  -28.2382 -103.9115 C   0  0  0  0  0  0  0  0  0  0  0  0
   45.9157  -29.3653 -104.0724 O   0  0  0  0  0  0  0  0  0  0  0  0
   47.1136  -27.5673 -102.1776 C   0  0  0  0  0  0  0  0  0  0  0  0
   47.9429  -26.7003 -103.1143 C   0  0  0  0  0  0  0  0  0  0  0  0
   49.7303  -26.6927 -102.7040 S   0  0  2  0  0  0  0  0  0  0  0  0
   50.5086  -25.8969 -104.1463 C   0  0  0  0  0  0  0  0  0  0  0  0
   50.0191  -28.4066 -103.1376 C   0  0  0  0  0  0  0  0  0  0  0  0
   50.5028  -29.2493 -101.9875 C   0  0  1  0  0  0  0  0  0  0  0  0
   49.5393  -29.1418 -100.9259 O   0  0  0  0  0  0  0  0  0  0  0  0
   50.3891  -30.6210 -102.5197 C   0  0  1  0  0  0  0  0  0  0  0  0
   51.6595  -31.0540 -103.0036 O   0  0  0  0  0  0  0  0  0  0  0  0
   50.0095  -31.4086 -101.3042 C   0  0  1  0  0  0  0  0  0  0  0  0
   51.1903  -31.8303 -100.5904 O   0  0  0  0  0  0  0  0  0  0  0  0
   49.1685  -30.4462 -100.4128 C   0  0  2  0  0  0  0  0  0  0  0  0
   44.8730  -27.6959 -104.8234 O   0  0  0  0  0  0  0  0  0  0  0  0
   44.8561  -31.9875 -103.1008 N   0  0  0  0  0  0  0  0  0  0  0  0
   46.1542  -32.1416 -103.4601 C   0  0  0  0  0  0  0  0  0  0  0  0
   47.1645  -31.7395 -102.6610 N   0  0  0  0  0  0  0  0  0  0  0  0
   46.9125  -31.0882 -101.5139 C   0  0  0  0  0  0  0  0  0  0  0  0
   45.5445  -30.8656 -101.1121 C   0  0  0  0  0  0  0  0  0  0  0  0
   44.5072  -31.3563 -101.9598 C   0  0  0  0  0  0  0  0  0  0  0  0
   43.1776  -31.1866 -101.6312 N   0  0  0  0  0  0  0  0  0  0  0  0
   45.5732  -30.1999  -99.9515 N   0  0  0  0  0  0  0  0  0  0  0  0
   46.8112  -29.9901  -99.6159 C   0  0  0  0  0  0  0  0  0  0  0  0
   47.6835  -30.5215 -100.5369 N   0  0  0  0  0  0  0  0  0  0  0  0
  2  1  1  1  0  0  0
  2  3  1  0  0  0  0
  2  5  1  0  0  0  0
  3  4  1  0  0  0  0
  3 17  1  0  0  0  0
  5  6  1  0  0  0  0
  7  6  1  6  0  0  0
  7  8  1  0  0  0  0
  7  9  1  0  0  0  0
 10  9  1  6  0  0  0
 10 11  1  0  0  0  0
 10 12  1  0  0  0  0
 11 16  1  0  0  0  0
 12 13  1  1  0  0  0
 12 14  1  0  0  0  0
 14 15  1  1  0  0  0
 14 16  1  0  0  0  0
 16 27  1  6  0  0  0
 18 19  2  0  0  0  0
 18 23  1  0  0  0  0
 19 20  1  0  0  0  0
 20 21  2  0  0  0  0
 21 22  1  0  0  0  0
 21 27  1  0  0  0  0
 22 23  2  0  0  0  0
 22 25  1  0  0  0  0
 23 24  1  0  0  0  0
 25 26  2  0  0  0  0
 26 27  1  0  0  0  0
M  END
>  <CHROM.1>
-69.15907174,-171.60699488,-179.61174051,168.48114460,-119.01741166,56.42683951
97.05137080,47.68093593,-29.49630435,-102.22334233,2.89931234,0.09655501
2.69751397

>  <Name>
ligand

>  <RI>
0

>  <Rbt.Current_Directory>
/home/itssahil/PROJECTS/Mol_Feturizer/New_Systems/rnas/4L81

>  <Rbt.Executable>
rbdock ($Id: //depot/dev/client3/rdock/2013.1/src/exe/rbdock.cxx#4 $)

>  <Rbt.Library>
libRbt.so (2013.1, Build901 2013/11/27)

>  <Rbt.Parameter_File>
/export/apps/rDock/src/rDock_2013.1_src/data/scripts/dock_solv.prm

>  <Rbt.Receptor>
prm/pocket_docking_8.prm

>  <SCORE>
-17.6793

>  <SCORE.INTER>
-15.025

>  <SCORE.INTER.CONST>
1

>  <SCORE.INTER.POLAR>
0

>  <SCORE.INTER.ROT>
7

>  <SCORE.INTER.SOLV>
19.432

>  <SCORE.INTER.VDW>
-24.7607

>  <SCORE.INTER.norm>
-0.556481

>  <SCORE.INTRA>
-2.65428

>  <SCORE.INTRA.DIHEDRAL>
-0.568103

>  <SCORE.INTRA.DIHEDRAL.0>
8.34559

>  <SCORE.INTRA.POLAR>
0

>  <SCORE.INTRA.POLAR.0>
0

>  <SCORE.INTRA.REPUL>
0

>  <SCORE.INTRA.REPUL.0>
0

>  <SCORE.INTRA.SOLV>
3.17622

>  <SCORE.INTRA.SOLV.lig_0>
-48.829

>  <SCORE.INTRA.VDW>
-3.95834

>  <SCORE.INTRA.VDW.0>
-1.77092

>  <SCORE.INTRA.norm>
-0.0983067

>  <SCORE.RESTR>
0

>  <SCORE.RESTR.CAVITY>
0

>  <SCORE.RESTR.norm>
0

>  <SCORE.SYSTEM>
0

>  <SCORE.SYSTEM.CONST>
0

>  <SCORE.SYSTEM.DIHEDRAL>
0

>  <SCORE.SYSTEM.SOLV>
0

>  <SCORE.SYSTEM.norm>
0

>  <SCORE.heavy>
27

>  <SCORE.norm>
-0.654788

>  <RMSD>
1.203

$$$$
ligand
 OpenBabel11021811503D
libRbt.so/2013.1/901 2013/11/27
 27 29  0  0  0  0  0  0  0  0999 V2000
   46.0276  -27.5648 -106.0288 N   0  0  0  0  0  0  0  0  0  0  0  0
   45.8974  -27.2711 -104.5972 C   0  0  2  0  0  0  0  0  0  0  0  0
   44.4403  -27.3569 -104.1943 C   0  0  0  0  0  0  0  0  0  0  0  0
   44.0967  -28.0975 -103.2853 O   0  0  0  0  0  0  0  0  0  0  0  0
   46.4221  -25.8678 -104.2645 C   0  0  0  0  0  0  0  0  0  0  0  0
   47.9355  -25.8061 -104.4150 C   0  0  0  0  0  0  0  0  0  0  0  0
   48.8335  -26.0909 -102.8415 S   0  0  2  0  0  0  0  0  0  0  0  0
   50.4937  -25.4084 -103.1535 C   0  0  0  0  0  0  0  0  0  0  0  0
   49.1786  -27.8222 -103.1451 C   0  0  0  0  0  0  0  0  0  0  0  0
   49.8260  -28.5241 -101.9810 C   0  0  1  0  0  0  0  0  0  0  0  0
   48.8925  -28.5186 -100.8877 O   0  0  0  0  0  0  0  0  0  0  0  0
   49.9130  -29.9202 -102.4513 C   0  0  1  0  0  0  0  0  0  0  0  0
   51.2194  -30.1718 -102.9664 O   0  0  0  0  0  0  0  0  0  0  0  0
   49.7018  -30.6995 -101.1903 C   0  0  1  0  0  0  0  0  0  0  0  0
   50.9567  -30.8976 -100.5067 O   0  0  0  0  0  0  0  0  0  0  0  0
   48.7488  -29.8393 -100.3071 C   0  0  2  0  0  0  0  0  0  0  0  0
   43.6051  -26.6650 -104.7497 O   0  0  0  0  0  0  0  0  0  0  0  0
   44.4286  -31.0529 -103.1464 N   0  0  0  0  0  0  0  0  0  0  0  0
   45.6782  -30.8006 -103.6077 C   0  0  0  0  0  0  0  0  0  0  0  0
   46.7054  -30.5438 -102.7711 N   0  0  0  0  0  0  0  0  0  0  0  0
   46.5015  -30.4421 -101.4476 C   0  0  0  0  0  0  0  0  0  0  0  0
   45.1781  -30.6625 -100.9162 C   0  0  0  0  0  0  0  0  0  0  0  0
   44.1324  -30.9860 -101.8312 C   0  0  0  0  0  0  0  0  0  0  0  0
   42.8455  -31.2187 -101.3900 N   0  0  0  0  0  0  0  0  0  0  0  0
   45.2485  -30.4978  -99.5901 N   0  0  0  0  0  0  0  0  0  0  0  0
   46.4701  -30.1934  -99.2668 C   0  0  0  0  0  0  0  0  0  0  0  0
   47.2910  -30.1513 -100.3696 N   0  0  0  0  0  0  0  0  0  0  0  0
  2  1  1  6  0  0  0
  2  3  1  0  0  0  0
  2  5  1  0  0  0  0
  3  4  1  0  0  0  0
  3 17  1  0  0  0  0
  5  6  1  0  0  0  0
  7  6  1  6  0  0  0
  7  8  1  0  0  0  0
  7  9  1  0  0  0  0
 10  9  1  6  0  0  0
 10 11  1  0  0  0  0
 10 12  1  0  0  0  0
 11 16  1  0  0  0  0
 12 13  1  1  0  0  0
 12 14  1  0  0  0  0
 14 15  1  1  0  0  0
 14 16  1  0  0  0  0
 16 27  1  6  0  0  0
 18 19  2  0  0  0  0
 18 23  1  0  0  0  0
 19 20  1  0  0  0  0
 20 21  2  0  0  0  0
 21 22  1  0  0  0  0
 21 27  1  0  0  0  0
 22 23  2  0  0  0  0
 22 25  1  0  0  0  0
 23 24  1  0  0  0  0
 25 26  2  0  0  0  0
 26 27  1  0  0  0  0
M  END
>  <CHROM.1>
124.52159663,-69.40842328,-94.72451996,-161.00536735,-174.29562203,64.05516309
71.16823051,47.19930067,-28.81873554,-102.46243560,3.08741120,0.19894717
2.48371516

>  <Name>
ligand

>  <RI>
0

>  <Rbt.Current_Directory>
/home/itssahil/PROJECTS/Mol_Feturizer/New_Systems/rnas/4L81

>  <Rbt.Executable>
rbdock ($Id: //depot/dev/client3/rdock/2013.1/src/exe/rbdock.cxx#4 $)

>  <Rbt.Library>
libRbt.so (2013.1, Build901 2013/11/27)

>  <Rbt.Parameter_File>
/export/apps/rDock/src/rDock_2013.1_src/data/scripts/dock_solv.prm

>  <Rbt.Receptor>
prm/pocket_docking_2.prm

>  <SCORE>
-16.9393

>  <SCORE.INTER>
-14.2412

>  <SCORE.INTER.CONST>
1

>  <SCORE.INTER.POLAR>
0

>  <SCORE.INTER.ROT>
7

>  <SCORE.INTER.SOLV>
17.9152

>  <SCORE.INTER.VDW>
-23.7325

>  <SCORE.INTER.norm>
-0.527452

>  <SCORE.INTRA>
-2.69808

>  <SCORE.INTRA.DIHEDRAL>
1.21269

>  <SCORE.INTRA.DIHEDRAL.0>
8.34559

>  <SCORE.INTRA.POLAR>
0

>  <SCORE.INTRA.POLAR.0>
0

>  <SCORE.INTRA.REPUL>
0

>  <SCORE.INTRA.REPUL.0>
0

>  <SCORE.INTRA.SOLV>
-0.114575

>  <SCORE.INTRA.SOLV.lig_0>
-48.829

>  <SCORE.INTRA.VDW>
-3.24713

>  <SCORE.INTRA.VDW.0>
-1.77092

>  <SCORE.INTRA.norm>
-0.0999288

>  <SCORE.RESTR>
0

>  <SCORE.RESTR.CAVITY>
0

>  <SCORE.RESTR.norm>
0

>  <SCORE.SYSTEM>
0

>  <SCORE.SYSTEM.CONST>
0

>  <SCORE.SYSTEM.DIHEDRAL>
0

>  <SCORE.SYSTEM.SOLV>
0

>  <SCORE.SYSTEM.norm>
0

>  <SCORE.heavy>
27

>  <SCORE.norm>
-0.627381

>  <RMSD>
1.204

$$$$
ligand
 OpenBabel11021811503D
libRbt.so/2013.1/901 2013/11/27
 27 29  0  0  0  0  0  0  0  0999 V2000
   46.2352  -27.9596 -105.6227 N   0  0  0  0  0  0  0  0  0  0  0  0
   46.0400  -27.4277 -104.2693 C   0  0  2  0  0  0  0  0  0  0  0  0
   44.5721  -27.5005 -103.9047 C   0  0  0  0  0  0  0  0  0  0  0  0
   43.7273  -27.0509 -104.6642 O   0  0  0  0  0  0  0  0  0  0  0  0
   46.5038  -25.9681 -104.1700 C   0  0  0  0  0  0  0  0  0  0  0  0
   48.0155  -25.8693 -104.3183 C   0  0  0  0  0  0  0  0  0  0  0  0
   48.9198  -26.1783 -102.7530 S   0  0  2  0  0  0  0  0  0  0  0  0
   50.5713  -25.4697 -103.0527 C   0  0  0  0  0  0  0  0  0  0  0  0
   49.2846  -27.8983 -103.0954 C   0  0  0  0  0  0  0  0  0  0  0  0
   49.9052  -28.6288 -101.9343 C   0  0  1  0  0  0  0  0  0  0  0  0
   48.9649  -28.6089 -100.8470 O   0  0  0  0  0  0  0  0  0  0  0  0
   49.9575  -30.0220 -102.4180 C   0  0  1  0  0  0  0  0  0  0  0  0
   51.2601  -30.3038 -102.9273 O   0  0  0  0  0  0  0  0  0  0  0  0
   49.7172  -30.8077 -101.1661 C   0  0  1  0  0  0  0  0  0  0  0  0
   50.9618  -31.0463 -100.4766 O   0  0  0  0  0  0  0  0  0  0  0  0
   48.7818  -29.9308 -100.2805 C   0  0  2  0  0  0  0  0  0  0  0  0
   44.2198  -28.0365 -102.8686 O   0  0  0  0  0  0  0  0  0  0  0  0
   44.4501  -31.0032 -103.1586 N   0  0  0  0  0  0  0  0  0  0  0  0
   45.7091  -30.7809 -103.6095 C   0  0  0  0  0  0  0  0  0  0  0  0
   46.7371  -30.5590 -102.7639 N   0  0  0  0  0  0  0  0  0  0  0  0
   46.5270  -30.4629 -101.4410 C   0  0  0  0  0  0  0  0  0  0  0  0
   45.1945  -30.6519 -100.9203 C   0  0  0  0  0  0  0  0  0  0  0  0
   44.1467  -30.9393 -101.8449 C   0  0  0  0  0  0  0  0  0  0  0  0
   42.8510  -31.1408 -101.4143 N   0  0  0  0  0  0  0  0  0  0  0  0
   45.2602  -30.5003  -99.5923 N   0  0  0  0  0  0  0  0  0  0  0  0
   46.4873  -30.2317  -99.2584 C   0  0  0  0  0  0  0  0  0  0  0  0
   47.3167  -30.2027 -100.3553 N   0  0  0  0  0  0  0  0  0  0  0  0
  2  1  1  6  0  0  0
  2  3  1  0  0  0  0
  2  5  1  0  0  0  0
  3  4  1  0  0  0  0
  3 17  1  0  0  0  0
  5  6  1  0  0  0  0
  7  6  1  6  0  0  0
  7  8  1  0  0  0  0
  7  9  1  0  0  0  0
 10  9  1  6  0  0  0
 10 11  1  0  0  0  0
 10 12  1  0  0  0  0
 11 16  1  0  0  0  0
 12 13  1  1  0  0  0
 12 14  1  0  0  0  0
 14 15  1  1  0  0  0
 14 16  1  0  0  0  0
 16 27  1  6  0  0  0
 18 19  2  0  0  0  0
 18 23  1  0  0  0  0
 19 20  1  0  0  0  0
 20 21  2  0  0  0  0
 21 22  1  0  0  0  0
 21 27  1  0  0  0  0
 22 23  2  0  0  0  0
 22 25  1  0  0  0  0
 23 24  1  0  0  0  0
 25 26  2  0  0  0  0
 26 27  1  0  0  0  0
M  END
>  <CHROM.1>
-50.71969809,-67.86502645,-83.53291104,-161.67702577,-172.58127280,61.58482402
71.25175675,47.26255660,-28.90012296,-102.37952087,3.00390969,0.18367355
2.50034073

>  <Name>
ligand

>  <RI>
0

>  <Rbt.Current_Directory>
/home/itssahil/PROJECTS/Mol_Feturizer/New_Systems/rnas/4L81

>  <Rbt.Executable>
rbdock ($Id: //depot/dev/client3/rdock/2013.1/src/exe/rbdock.cxx#4 $)

>  <Rbt.Library>
libRbt.so (2013.1, Build901 2013/11/27)

>  <Rbt.Parameter_File>
/export/apps/rDock/src/rDock_2013.1_src/data/scripts/dock_solv.prm

>  <Rbt.Receptor>
prm/pocket_docking_2.prm

>  <SCORE>
-16.7692

>  <SCORE.INTER>
-13.2034

>  <SCORE.INTER.CONST>
1

>  <SCORE.INTER.POLAR>
0

>  <SCORE.INTER.ROT>
7

>  <SCORE.INTER.SOLV>
17.1779

>  <SCORE.INTER.VDW>
-22.7949

>  <SCORE.INTER.norm>
-0.489015

>  <SCORE.INTRA>
-3.59026

>  <SCORE.INTRA.DIHEDRAL>
-0.438343

>  <SCORE.INTRA.DIHEDRAL.0>
8.34559

>  <SCORE.INTRA.POLAR>
0

>  <SCORE.INTRA.POLAR.0>
0

>  <SCORE.INTRA.REPUL>
0

>  <SCORE.INTRA.REPUL.0>
0

>  <SCORE.INTRA.SOLV>
0.797878

>  <SCORE.INTRA.SOLV.lig_0>
-48.829

>  <SCORE.INTRA.VDW>
-3.77003

>  <SCORE.INTRA.VDW.0>
-1.77092

>  <SCORE.INTRA.norm>
-0.132973

>  <SCORE.RESTR>
0.024422

>  <SCORE.RESTR.CAVITY>
0.024422

>  <SCORE.RESTR.norm>
0.00090452

>  <SCORE.SYSTEM>
0

>  <SCORE.SYSTEM.CONST>
0

>  <SCORE.SYSTEM.DIHEDRAL>
0

>  <SCORE.SYSTEM.SOLV>
0

>  <SCORE.SYSTEM.norm>
0

>  <SCORE.heavy>
27

>  <SCORE.norm>
-0.621083

>  <RMSD>
1.207

$$$$
ligand
 OpenBabel11021811503D
libRbt.so/2013.1/901 2013/11/27
 27 29  0  0  0  0  0  0  0  0999 V2000
   45.0098  -25.4611 -105.0163 N   0  0  0  0  0  0  0  0  0  0  0  0
   45.7435  -26.6339 -104.5276 C   0  0  2  0  0  0  0  0  0  0  0  0
   44.8600  -27.4272 -103.5880 C   0  0  0  0  0  0  0  0  0  0  0  0
   44.7490  -27.0913 -102.4186 O   0  0  0  0  0  0  0  0  0  0  0  0
   47.0196  -26.2233 -103.7802 C   0  0  0  0  0  0  0  0  0  0  0  0
   47.8507  -27.4455 -103.4163 C   0  0  0  0  0  0  0  0  0  0  0  0
   49.5005  -27.0243 -102.7349 S   0  0  2  0  0  0  0  0  0  0  0  0
   50.2408  -25.9520 -104.0083 C   0  0  0  0  0  0  0  0  0  0  0  0
   50.2787  -28.5740 -103.1839 C   0  0  0  0  0  0  0  0  0  0  0  0
   50.6748  -29.4180 -102.0017 C   0  0  1  0  0  0  0  0  0  0  0  0
   49.7213  -29.1821 -100.9519 O   0  0  0  0  0  0  0  0  0  0  0  0
   50.4331  -30.7905 -102.4871 C   0  0  1  0  0  0  0  0  0  0  0  0
   51.6585  -31.3591 -102.9459 O   0  0  0  0  0  0  0  0  0  0  0  0
   49.9748  -31.4952 -101.2480 C   0  0  1  0  0  0  0  0  0  0  0  0
   51.1068  -32.0020 -100.5111 O   0  0  0  0  0  0  0  0  0  0  0  0
   49.2255  -30.4264 -100.3970 C   0  0  2  0  0  0  0  0  0  0  0  0
   44.2279  -28.3852 -103.9974 O   0  0  0  0  0  0  0  0  0  0  0  0
   44.7769  -31.8437 -102.9267 N   0  0  0  0  0  0  0  0  0  0  0  0
   46.0522  -32.1738 -103.2471 C   0  0  0  0  0  0  0  0  0  0  0  0
   47.0986  -31.7800 -102.4916 N   0  0  0  0  0  0  0  0  0  0  0  0
   46.9152  -30.9674 -101.4382 C   0  0  0  0  0  0  0  0  0  0  0  0
   45.5775  -30.5573 -101.0850 C   0  0  0  0  0  0  0  0  0  0  0  0
   44.4951  -31.0418 -101.8781 C   0  0  0  0  0  0  0  0  0  0  0  0
   43.1901  -30.6970 -101.5905 N   0  0  0  0  0  0  0  0  0  0  0  0
   45.6748  -29.7575 -100.0165 N   0  0  0  0  0  0  0  0  0  0  0  0
   46.9279  -29.6349  -99.6938 C   0  0  0  0  0  0  0  0  0  0  0  0
   47.7407  -30.3644 -100.5299 N   0  0  0  0  0  0  0  0  0  0  0  0
  2  1  1  1  0  0  0
  2  3  1  0  0  0  0
  2  5  1  0  0  0  0
  3  4  1  0  0  0  0
  3 17  1  0  0  0  0
  5  6  1  0  0  0  0
  7  6  1  6  0  0  0
  7  8  1  0  0  0  0
  7  9  1  0  0  0  0
 10  9  1  6  0  0  0
 10 11  1  0  0  0  0
 10 12  1  0  0  0  0
 11 16  1  0  0  0  0
 12 13  1  1  0  0  0
 12 14  1  0  0  0  0
 14 15  1  1  0  0  0
 14 16  1  0  0  0  0
 16 27  1  6  0  0  0
 18 19  2  0  0  0  0
 18 23  1  0  0  0  0
 19 20  1  0  0  0  0
 20 21  2  0  0  0  0
 21 22  1  0  0  0  0
 21 27  1  0  0  0  0
 22 23  2  0  0  0  0
 22 25  1  0  0  0  0
 23 24  1  0  0  0  0
 25 26  2  0  0  0  0
 26 27  1  0  0  0  0
M  END
>  <CHROM.1>
-81.94780212,-173.58697687,171.80401297,-54.85329708,-113.26577562,32.27613909
102.28017904,47.58675765,-29.25060435,-102.33855681,-2.66628359,0.05692027
2.67024407

>  <Name>
ligand

>  <RI>
0

>  <Rbt.Current_Directory>
/home/itssahil/PROJECTS/Mol_Feturizer/New_Systems/rnas/4L81

>  <Rbt.Executable>
rbdock ($Id: //depot/dev/client3/rdock/2013.1/src/exe/rbdock.cxx#4 $)

>  <Rbt.Library>
libRbt.so (2013.1, Build901 2013/11/27)

>  <Rbt.Parameter_File>
/export/apps/rDock/src/rDock_2013.1_src/data/scripts/dock_solv.prm

>  <Rbt.Receptor>
prm/pocket_docking_2.prm

>  <SCORE>
-16.5489

>  <SCORE.INTER>
-15.7768

>  <SCORE.INTER.CONST>
1

>  <SCORE.INTER.POLAR>
0

>  <SCORE.INTER.ROT>
7

>  <SCORE.INTER.SOLV>
20.1679

>  <SCORE.INTER.VDW>
-25.5071

>  <SCORE.INTER.norm>
-0.584324

>  <SCORE.INTRA>
-0.799352

>  <SCORE.INTRA.DIHEDRAL>
1.86846

>  <SCORE.INTRA.DIHEDRAL.0>
8.34559

>  <SCORE.INTRA.POLAR>
0

>  <SCORE.INTRA.POLAR.0>
0

>  <SCORE.INTRA.REPUL>
0

>  <SCORE.INTRA.REPUL.0>
0

>  <SCORE.INTRA.SOLV>
-0.755715

>  <SCORE.INTRA.SOLV.lig_0>
-48.829

>  <SCORE.INTRA.VDW>
-1.35573

>  <SCORE.INTRA.VDW.0>
-1.77092

>  <SCORE.INTRA.norm>
-0.0296056

>  <SCORE.RESTR>
0.0271849

>  <SCORE.RESTR.CAVITY>
0.0271849

>  <SCORE.RESTR.norm>
0.00100685

>  <SCORE.SYSTEM>
0

>  <SCORE.SYSTEM.CONST>
0

>  <SCORE.SYSTEM.DIHEDRAL>
0

>  <SCORE.SYSTEM.SOLV>
0

>  <SCORE.SYSTEM.norm>
0

>  <SCORE.heavy>
27

>  <SCORE.norm>
-0.612923

>  <RMSD>
1.209

$$$$
ligand
 OpenBabel11021811503D
libRbt.so/2013.1/901 2013/11/27
 27 29  0  0  0  0  0  0  0  0999 V2000
   45.8797  -28.7645 -105.3015 N   0  0  0  0  0  0  0  0  0  0  0  0
   45.7436  -27.8573 -104.1564 C   0  0  2  0  0  0  0  0  0  0  0  0
   44.7165  -26.7915 -104.4754 C   0  0  0  0  0  0  0  0  0  0  0  0
   44.8105  -26.1352 -105.5017 O   0  0  0  0  0  0  0  0  0  0  0  0
   47.0775  -27.1762 -103.8213 C   0  0  0  0  0  0  0  0  0  0  0  0
   48.1325  -28.2073 -103.4460 C   0  0  0  0  0  0  0  0  0  0  0  0
   49.8006  -27.4841 -103.2056 S   0  0  2  0  0  0  0  0  0  0  0  0
   50.1689  -26.6891 -104.8031 C   0  0  0  0  0  0  0  0  0  0  0  0
   50.6947  -29.0183 -103.4414 C   0  0  0  0  0  0  0  0  0  0  0  0
   51.0923  -29.6916 -102.1548 C   0  0  1  0  0  0  0  0  0  0  0  0
   50.1195  -29.3430 -101.1553 O   0  0  0  0  0  0  0  0  0  0  0  0
   50.8869  -31.1209 -102.4594 C   0  0  1  0  0  0  0  0  0  0  0  0
   52.1304  -31.7160 -102.8265 O   0  0  0  0  0  0  0  0  0  0  0  0
   50.4266  -31.6685 -101.1440 C   0  0  1  0  0  0  0  0  0  0  0  0
   51.5589  -32.0487 -100.3348 O   0  0  0  0  0  0  0  0  0  0  0  0
   49.6428  -30.5155 -100.4481 C   0  0  2  0  0  0  0  0  0  0  0  0
   43.7716  -26.6025 -103.7295 O   0  0  0  0  0  0  0  0  0  0  0  0
   45.2957  -31.9797 -103.1233 N   0  0  0  0  0  0  0  0  0  0  0  0
   46.5881  -32.2428 -103.4368 C   0  0  0  0  0  0  0  0  0  0  0  0
   47.6057  -31.8460 -102.6442 N   0  0  0  0  0  0  0  0  0  0  0  0
   47.3731  -31.0947 -101.5557 C   0  0  0  0  0  0  0  0  0  0  0  0
   46.0144  -30.7558 -101.2067 C   0  0  0  0  0  0  0  0  0  0  0  0
   44.9652  -31.2427 -102.0418 C   0  0  0  0  0  0  0  0  0  0  0  0
   43.6429  -30.9644 -101.7609 N   0  0  0  0  0  0  0  0  0  0  0  0
   46.0625  -30.0071 -100.0986 N   0  0  0  0  0  0  0  0  0  0  0  0
   47.3043  -29.8513  -99.7480 C   0  0  0  0  0  0  0  0  0  0  0  0
   48.1590  -30.5056 -100.6042 N   0  0  0  0  0  0  0  0  0  0  0  0
  2  1  1  6  0  0  0
  2  3  1  0  0  0  0
  2  5  1  0  0  0  0
  3  4  1  0  0  0  0
  3 17  1  0  0  0  0
  5  6  1  0  0  0  0
  7  6  1  6  0  0  0
  7  8  1  0  0  0  0
  7  9  1  0  0  0  0
 10  9  1  6  0  0  0
 10 11  1  0  0  0  0
 10 12  1  0  0  0  0
 11 16  1  0  0  0  0
 12 13  1  1  0  0  0
 12 14  1  0  0  0  0
 14 15  1  1  0  0  0
 14 16  1  0  0  0  0
 16 27  1  6  0  0  0
 18 19  2  0  0  0  0
 18 23  1  0  0  0  0
 19 20  1  0  0  0  0
 20 21  2  0  0  0  0
 21 22  1  0  0  0  0
 21 27  1  0  0  0  0
 22 23  2  0  0  0  0
 22 25  1  0  0  0  0
 23 24  1  0  0  0  0
 25 26  2  0  0  0  0
 26 27  1  0  0  0  0
M  END
>  <CHROM.1>
-52.28261968,-61.13604338,173.86257531,-58.40629405,-98.58643711,29.21494860
91.89680268,47.91067503,-29.52972181,-102.60295153,-2.55066970,0.04520688
2.53529104

>  <Name>
ligand

>  <RI>
0

>  <Rbt.Current_Directory>
/home/itssahil/PROJECTS/Mol_Feturizer/New_Systems/rnas/4L81

>  <Rbt.Executable>
rbdock ($Id: //depot/dev/client3/rdock/2013.1/src/exe/rbdock.cxx#4 $)

>  <Rbt.Library>
libRbt.so (2013.1, Build901 2013/11/27)

>  <Rbt.Parameter_File>
/export/apps/rDock/src/rDock_2013.1_src/data/scripts/dock_solv.prm

>  <Rbt.Receptor>
prm/pocket_docking_3.prm

>  <SCORE>
-18.7895

>  <SCORE.INTER>
-16.5607

>  <SCORE.INTER.CONST>
1

>  <SCORE.INTER.POLAR>
0

>  <SCORE.INTER.ROT>
7

>  <SCORE.INTER.SOLV>
14.0227

>  <SCORE.INTER.VDW>
-23.9814

>  <SCORE.INTER.norm>
-0.61336

>  <SCORE.INTRA>
-2.2288

>  <SCORE.INTRA.DIHEDRAL>
0.340709

>  <SCORE.INTRA.DIHEDRAL.0>
8.34559

>  <SCORE.INTRA.POLAR>
0

>  <SCORE.INTRA.POLAR.0>
0

>  <SCORE.INTRA.REPUL>
0

>  <SCORE.INTRA.REPUL.0>
0

>  <SCORE.INTRA.SOLV>
-0.266645

>  <SCORE.INTRA.SOLV.lig_0>
-48.829

>  <SCORE.INTRA.VDW>
-2.26583

>  <SCORE.INTRA.VDW.0>
-1.77092

>  <SCORE.INTRA.norm>
-0.0825481

>  <SCORE.RESTR>
0

>  <SCORE.RESTR.CAVITY>
0

>  <SCORE.RESTR.norm>
0

>  <SCORE.SYSTEM>
0

>  <SCORE.SYSTEM.CONST>
0

>  <SCORE.SYSTEM.DIHEDRAL>
0

>  <SCORE.SYSTEM.SOLV>
0

>  <SCORE.SYSTEM.norm>
0

>  <SCORE.heavy>
27

>  <SCORE.norm>
-0.695908

>  <RMSD>
1.219

$$$$
ligand
 OpenBabel11021811503D
libRbt.so/2013.1/901 2013/11/27
 27 29  0  0  0  0  0  0  0  0999 V2000
   46.0779  -28.4512 -105.1241 N   0  0  0  0  0  0  0  0  0  0  0  0
   45.3525  -27.2649 -104.6559 C   0  0  2  0  0  0  0  0  0  0  0  0
   45.2111  -26.2770 -105.7947 C   0  0  0  0  0  0  0  0  0  0  0  0
   45.7245  -26.5110 -106.8785 O   0  0  0  0  0  0  0  0  0  0  0  0
   46.0884  -26.5816 -103.4953 C   0  0  0  0  0  0  0  0  0  0  0  0
   47.4672  -26.1077 -103.9327 C   0  0  0  0  0  0  0  0  0  0  0  0
   48.7194  -26.1855 -102.5950 S   0  0  2  0  0  0  0  0  0  0  0  0
   50.1373  -25.2590 -103.2663 C   0  0  0  0  0  0  0  0  0  0  0  0
   49.2698  -27.8498 -102.9639 C   0  0  0  0  0  0  0  0  0  0  0  0
   49.7462  -28.6120 -101.7561 C   0  0  1  0  0  0  0  0  0  0  0  0
   48.7020  -28.5717 -100.7687 O   0  0  0  0  0  0  0  0  0  0  0  0
   49.8025  -30.0013 -102.2504 C   0  0  1  0  0  0  0  0  0  0  0  0
   51.1402  -30.3211 -102.6297 O   0  0  0  0  0  0  0  0  0  0  0  0
   49.4119  -30.7910 -101.0397 C   0  0  1  0  0  0  0  0  0  0  0  0
   50.5721  -31.0777 -100.2316 O   0  0  0  0  0  0  0  0  0  0  0  0
   48.4204  -29.8925 -100.2411 C   0  0  2  0  0  0  0  0  0  0  0  0
   44.5577  -25.2586 -105.6502 O   0  0  0  0  0  0  0  0  0  0  0  0
   44.4908  -32.1017 -103.0474 N   0  0  0  0  0  0  0  0  0  0  0  0
   45.8229  -32.1763 -103.2880 C   0  0  0  0  0  0  0  0  0  0  0  0
   46.7258  -31.5996 -102.4676 N   0  0  0  0  0  0  0  0  0  0  0  0
   46.3255  -30.8522 -101.4261 C   0  0  0  0  0  0  0  0  0  0  0  0
   44.9148  -30.7116 -101.1566 C   0  0  0  0  0  0  0  0  0  0  0  0
   43.9964  -31.3837 -102.0169 C   0  0  0  0  0  0  0  0  0  0  0  0
   42.6343  -31.2999 -101.8109 N   0  0  0  0  0  0  0  0  0  0  0  0
   44.7909  -29.9231 -100.0824 N   0  0  0  0  0  0  0  0  0  0  0  0
   45.9749  -29.5668  -99.6816 C   0  0  0  0  0  0  0  0  0  0  0  0
   46.9623  -30.1148 -100.4666 N   0  0  0  0  0  0  0  0  0  0  0  0
  2  1  1  6  0  0  0
  2  3  1  0  0  0  0
  2  5  1  0  0  0  0
  3  4  1  0  0  0  0
  3 17  1  0  0  0  0
  5  6  1  0  0  0  0
  7  6  1  6  0  0  0
  7  8  1  0  0  0  0
  7  9  1  0  0  0  0
 10  9  1  6  0  0  0
 10 11  1  0  0  0  0
 10 12  1  0  0  0  0
 11 16  1  0  0  0  0
 12 13  1  1  0  0  0
 12 14  1  0  0  0  0
 14 15  1  1  0  0  0
 14 16  1  0  0  0  0
 16 27  1  6  0  0  0
 18 19  2  0  0  0  0
 18 23  1  0  0  0  0
 19 20  1  0  0  0  0
 20 21  2  0  0  0  0
 21 22  1  0  0  0  0
 21 27  1  0  0  0  0
 22 23  2  0  0  0  0
 22 25  1  0  0  0  0
 23 24  1  0  0  0  0
 25 26  2  0  0  0  0
 26 27  1  0  0  0  0
M  END
>  <CHROM.1>
-3.30626550,61.35341930,-146.94081245,-168.61047044,-149.24212279,53.83219065
101.94101479,47.14867766,-28.86599876,-102.58377852,1.69106882,-0.31637357
-0.62674942

>  <Name>
ligand

>  <RI>
0

>  <Rbt.Current_Directory>
/home/itssahil/PROJECTS/Mol_Feturizer/New_Systems/rnas/4L81

>  <Rbt.Executable>
rbdock ($Id: //depot/dev/client3/rdock/2013.1/src/exe/rbdock.cxx#4 $)

>  <Rbt.Library>
libRbt.so (2013.1, Build901 2013/11/27)

>  <Rbt.Parameter_File>
/export/apps/rDock/src/rDock_2013.1_src/data/scripts/dock_solv.prm

>  <Rbt.Receptor>
prm/pocket_docking_3.prm

>  <SCORE>
-16.823

>  <SCORE.INTER>
-17.1471

>  <SCORE.INTER.CONST>
1

>  <SCORE.INTER.POLAR>
0

>  <SCORE.INTER.ROT>
7

>  <SCORE.INTER.SOLV>
17.2204

>  <SCORE.INTER.VDW>
-25.4382

>  <SCORE.INTER.norm>
-0.635078

>  <SCORE.INTRA>
0.324054

>  <SCORE.INTRA.DIHEDRAL>
2.5441

>  <SCORE.INTRA.DIHEDRAL.0>
8.34559

>  <SCORE.INTRA.POLAR>
0

>  <SCORE.INTRA.POLAR.0>
0

>  <SCORE.INTRA.REPUL>
0

>  <SCORE.INTRA.REPUL.0>
0

>  <SCORE.INTRA.SOLV>
0.197435

>  <SCORE.INTRA.SOLV.lig_0>
-48.829

>  <SCORE.INTRA.VDW>
-1.04671

>  <SCORE.INTRA.VDW.0>
-1.77092

>  <SCORE.INTRA.norm>
0.012002

>  <SCORE.RESTR>
0

>  <SCORE.RESTR.CAVITY>
0

>  <SCORE.RESTR.norm>
0

>  <SCORE.SYSTEM>
0

>  <SCORE.SYSTEM.CONST>
0

>  <SCORE.SYSTEM.DIHEDRAL>
0

>  <SCORE.SYSTEM.SOLV>
0

>  <SCORE.SYSTEM.norm>
0

>  <SCORE.heavy>
27

>  <SCORE.norm>
-0.623076

>  <RMSD>
1.243

$$$$
ligand
 OpenBabel11021811503D
libRbt.so/2013.1/901 2013/11/27
 27 29  0  0  0  0  0  0  0  0999 V2000
   45.3508  -25.2844 -105.3381 N   0  0  0  0  0  0  0  0  0  0  0  0
   45.9739  -26.5242 -104.8612 C   0  0  2  0  0  0  0  0  0  0  0  0
   44.9556  -27.3372 -104.0899 C   0  0  0  0  0  0  0  0  0  0  0  0
   45.1019  -28.5434 -103.9618 O   0  0  0  0  0  0  0  0  0  0  0  0
   47.1711  -26.2322 -103.9465 C   0  0  0  0  0  0  0  0  0  0  0  0
   48.0755  -27.4512 -103.8328 C   0  0  0  0  0  0  0  0  0  0  0  0
   49.5330  -27.1753 -102.7545 S   0  0  2  0  0  0  0  0  0  0  0  0
   50.5566  -25.9960 -103.6930 C   0  0  0  0  0  0  0  0  0  0  0  0
   50.3727  -28.6938 -103.1993 C   0  0  0  0  0  0  0  0  0  0  0  0
   50.8309  -29.5022 -102.0146 C   0  0  1  0  0  0  0  0  0  0  0  0
   49.8931  -29.2895 -100.9459 O   0  0  0  0  0  0  0  0  0  0  0  0
   50.6354  -30.8909 -102.4740 C   0  0  1  0  0  0  0  0  0  0  0  0
   51.8724  -31.4156 -102.9535 O   0  0  0  0  0  0  0  0  0  0  0  0
   50.2357  -31.5945 -101.2141 C   0  0  1  0  0  0  0  0  0  0  0  0
   51.4046  -32.0426 -100.4971 O   0  0  0  0  0  0  0  0  0  0  0  0
   49.4625  -30.5444 -100.3612 C   0  0  2  0  0  0  0  0  0  0  0  0
   44.0015  -26.7916 -103.5636 O   0  0  0  0  0  0  0  0  0  0  0  0
   45.0385  -31.7001 -103.0613 N   0  0  0  0  0  0  0  0  0  0  0  0
   46.3219  -31.8848 -103.4574 C   0  0  0  0  0  0  0  0  0  0  0  0
   47.3631  -31.5852 -102.6530 N   0  0  0  0  0  0  0  0  0  0  0  0
   47.1609  -31.0071 -101.4578 C   0  0  0  0  0  0  0  0  0  0  0  0
   45.8116  -30.7542 -101.0130 C   0  0  0  0  0  0  0  0  0  0  0  0
   44.7385  -31.1374 -101.8716 C   0  0  0  0  0  0  0  0  0  0  0  0
   43.4239  -30.9337 -101.5044 N   0  0  0  0  0  0  0  0  0  0  0  0
   45.8906  -30.1750  -99.8093 N   0  0  0  0  0  0  0  0  0  0  0  0
   47.1426  -30.0438  -99.4854 C   0  0  0  0  0  0  0  0  0  0  0  0
   47.9737  -30.5458 -100.4595 N   0  0  0  0  0  0  0  0  0  0  0  0
  2  1  1  1  0  0  0
  2  3  1  0  0  0  0
  2  5  1  0  0  0  0
  3  4  1  0  0  0  0
  3 17  1  0  0  0  0
  5  6  1  0  0  0  0
  7  6  1  6  0  0  0
  7  8  1  0  0  0  0
  7  9  1  0  0  0  0
 10  9  1  6  0  0  0
 10 11  1  0  0  0  0
 10 12  1  0  0  0  0
 11 16  1  0  0  0  0
 12 13  1  1  0  0  0
 12 14  1  0  0  0  0
 14 15  1  1  0  0  0
 14 16  1  0  0  0  0
 16 27  1  6  0  0  0
 18 19  2  0  0  0  0
 18 23  1  0  0  0  0
 19 20  1  0  0  0  0
 20 21  2  0  0  0  0
 21 22  1  0  0  0  0
 21 27  1  0  0  0  0
 22 23  2  0  0  0  0
 22 25  1  0  0  0  0
 23 24  1  0  0  0  0
 25 26  2  0  0  0  0
 26 27  1  0  0  0  0
M  END
>  <CHROM.1>
157.24391868,-161.16225199,179.90765873,-69.06779885,-129.86428868,31.94675537
90.03753552,47.78362926,-29.30449747,-102.42607089,-2.48747388,0.07064752
2.60931207

>  <Name>
ligand

>  <RI>
0

>  <Rbt.Current_Directory>
/home/itssahil/PROJECTS/Mol_Feturizer/New_Systems/rnas/4L81

>  <Rbt.Executable>
rbdock ($Id: //depot/dev/client3/rdock/2013.1/src/exe/rbdock.cxx#4 $)

>  <Rbt.Library>
libRbt.so (2013.1, Build901 2013/11/27)

>  <Rbt.Parameter_File>
/export/apps/rDock/src/rDock_2013.1_src/data/scripts/dock_solv.prm

>  <Rbt.Receptor>
prm/pocket_docking_4.prm

>  <SCORE>
-16.5242

>  <SCORE.INTER>
-15.5255

>  <SCORE.INTER.CONST>
1

>  <SCORE.INTER.POLAR>
0

>  <SCORE.INTER.ROT>
7

>  <SCORE.INTER.SOLV>
19.524

>  <SCORE.INTER.VDW>
-25.125

>  <SCORE.INTER.norm>
-0.575019

>  <SCORE.INTRA>
-0.998659

>  <SCORE.INTRA.DIHEDRAL>
2.77909

>  <SCORE.INTRA.DIHEDRAL.0>
8.34559

>  <SCORE.INTRA.POLAR>
0

>  <SCORE.INTRA.POLAR.0>
0

>  <SCORE.INTRA.REPUL>
0

>  <SCORE.INTRA.REPUL.0>
0

>  <SCORE.INTRA.SOLV>
-1.03821

>  <SCORE.INTRA.SOLV.lig_0>
-48.829

>  <SCORE.INTRA.VDW>
-1.8691

>  <SCORE.INTRA.VDW.0>
-1.77092

>  <SCORE.INTRA.norm>
-0.0369874

>  <SCORE.RESTR>
0

>  <SCORE.RESTR.CAVITY>
0

>  <SCORE.RESTR.norm>
0

>  <SCORE.SYSTEM>
0

>  <SCORE.SYSTEM.CONST>
0

>  <SCORE.SYSTEM.DIHEDRAL>
0

>  <SCORE.SYSTEM.SOLV>
0

>  <SCORE.SYSTEM.norm>
0

>  <SCORE.heavy>
27

>  <SCORE.norm>
-0.612007

>  <RMSD>
1.247

$$$$
ligand
 OpenBabel11021811503D
libRbt.so/2013.1/901 2013/11/27
 27 29  0  0  0  0  0  0  0  0999 V2000
   46.2390  -28.1255 -105.0387 N   0  0  0  0  0  0  0  0  0  0  0  0
   45.5658  -26.8540 -104.7509 C   0  0  2  0  0  0  0  0  0  0  0  0
   45.5349  -26.0038 -106.0035 C   0  0  0  0  0  0  0  0  0  0  0  0
   46.0145  -26.4262 -107.0448 O   0  0  0  0  0  0  0  0  0  0  0  0
   46.2887  -26.0773 -103.6420 C   0  0  0  0  0  0  0  0  0  0  0  0
   47.7427  -25.8265 -104.0164 C   0  0  0  0  0  0  0  0  0  0  0  0
   48.9075  -26.1021 -102.6269 S   0  0  2  0  0  0  0  0  0  0  0  0
   50.4737  -25.3828 -103.2177 C   0  0  0  0  0  0  0  0  0  0  0  0
   49.2282  -27.8238 -103.0032 C   0  0  0  0  0  0  0  0  0  0  0  0
   49.7307  -28.6177 -101.8267 C   0  0  1  0  0  0  0  0  0  0  0  0
   48.7082  -28.6041 -100.8161 O   0  0  0  0  0  0  0  0  0  0  0  0
   49.7761  -29.9933 -102.3589 C   0  0  1  0  0  0  0  0  0  0  0  0
   51.1052  -30.3022 -102.7755 O   0  0  0  0  0  0  0  0  0  0  0  0
   49.4118  -30.8151 -101.1613 C   0  0  1  0  0  0  0  0  0  0  0  0
   50.5893  -31.1226 -100.3866 O   0  0  0  0  0  0  0  0  0  0  0  0
   48.4380  -29.9385 -100.3178 C   0  0  2  0  0  0  0  0  0  0  0  0
   45.0032  -24.9074 -105.9918 O   0  0  0  0  0  0  0  0  0  0  0  0
   44.4511  -32.1319 -103.0550 N   0  0  0  0  0  0  0  0  0  0  0  0
   45.7784  -32.2111 -103.3193 C   0  0  0  0  0  0  0  0  0  0  0  0
   46.6979  -31.6381 -102.5147 N   0  0  0  0  0  0  0  0  0  0  0  0
   46.3188  -30.8900 -101.4659 C   0  0  0  0  0  0  0  0  0  0  0  0
   44.9137  -30.7444 -101.1712 C   0  0  0  0  0  0  0  0  0  0  0  0
   43.9777  -31.4127 -102.0154 C   0  0  0  0  0  0  0  0  0  0  0  0
   42.6198  -31.3242 -101.7851 N   0  0  0  0  0  0  0  0  0  0  0  0
   44.8118  -29.9562 -100.0945 N   0  0  0  0  0  0  0  0  0  0  0  0
   46.0040  -29.6044  -99.7146 C   0  0  0  0  0  0  0  0  0  0  0  0
   46.9753  -30.1555 -100.5174 N   0  0  0  0  0  0  0  0  0  0  0  0
  2  1  1  6  0  0  0
  2  3  1  0  0  0  0
  2  5  1  0  0  0  0
  3  4  1  0  0  0  0
  3 17  1  0  0  0  0
  5  6  1  0  0  0  0
  7  6  1  6  0  0  0
  7  8  1  0  0  0  0
  7  9  1  0  0  0  0
 10  9  1  6  0  0  0
 10 11  1  0  0  0  0
 10 12  1  0  0  0  0
 11 16  1  0  0  0  0
 12 13  1  1  0  0  0
 12 14  1  0  0  0  0
 14 15  1  1  0  0  0
 14 16  1  0  0  0  0
 16 27  1  6  0  0  0
 18 19  2  0  0  0  0
 18 23  1  0  0  0  0
 19 20  1  0  0  0  0
 20 21  2  0  0  0  0
 21 22  1  0  0  0  0
 21 27  1  0  0  0  0
 22 23  2  0  0  0  0
 22 25  1  0  0  0  0
 23 24  1  0  0  0  0
 25 26  2  0  0  0  0
 26 27  1  0  0  0  0
M  END
>  <CHROM.1>
0.87605551,57.06567589,-137.19997027,-167.60141670,-157.78985627,62.10890238
103.46151336,47.24137104,-28.79901721,-102.65532135,1.49311791,-0.30998875
-0.62967780

>  <Name>
ligand

>  <RI>
0

>  <Rbt.Current_Directory>
/home/itssahil/PROJECTS/Mol_Feturizer/New_Systems/rnas/4L81

>  <Rbt.Executable>
rbdock ($Id: //depot/dev/client3/rdock/2013.1/src/exe/rbdock.cxx#4 $)

>  <Rbt.Library>
libRbt.so (2013.1, Build901 2013/11/27)

>  <Rbt.Parameter_File>
/export/apps/rDock/src/rDock_2013.1_src/data/scripts/dock_solv.prm

>  <Rbt.Receptor>
prm/pocket_docking_2.prm

>  <SCORE>
-15.6976

>  <SCORE.INTER>
-16.6552

>  <SCORE.INTER.CONST>
1

>  <SCORE.INTER.POLAR>
0

>  <SCORE.INTER.ROT>
7

>  <SCORE.INTER.SOLV>
16.9457

>  <SCORE.INTER.VDW>
-25.0187

>  <SCORE.INTER.norm>
-0.616861

>  <SCORE.INTRA>
0.89877

>  <SCORE.INTRA.DIHEDRAL>
2.87422

>  <SCORE.INTRA.DIHEDRAL.0>
8.34559

>  <SCORE.INTRA.POLAR>
0

>  <SCORE.INTRA.POLAR.0>
0

>  <SCORE.INTRA.REPUL>
0

>  <SCORE.INTRA.REPUL.0>
0

>  <SCORE.INTRA.SOLV>
0.513206

>  <SCORE.INTRA.SOLV.lig_0>
-48.829

>  <SCORE.INTRA.VDW>
-0.794945

>  <SCORE.INTRA.VDW.0>
-1.77092

>  <SCORE.INTRA.norm>
0.0332878

>  <SCORE.RESTR>
0.0588618

>  <SCORE.RESTR.CAVITY>
0.0588618

>  <SCORE.RESTR.norm>
0.00218007

>  <SCORE.SYSTEM>
0

>  <SCORE.SYSTEM.CONST>
0

>  <SCORE.SYSTEM.DIHEDRAL>
0

>  <SCORE.SYSTEM.SOLV>
0

>  <SCORE.SYSTEM.norm>
0

>  <SCORE.heavy>
27

>  <SCORE.norm>
-0.581393

>  <RMSD>
1.297

$$$$
ligand
 OpenBabel11021811503D
libRbt.so/2013.1/901 2013/11/27
 27 29  0  0  0  0  0  0  0  0999 V2000
   46.0461  -27.5629 -106.0104 N   0  0  0  0  0  0  0  0  0  0  0  0
   46.0001  -27.1669 -104.5984 C   0  0  2  0  0  0  0  0  0  0  0  0
   44.5875  -27.3226 -104.0758 C   0  0  0  0  0  0  0  0  0  0  0  0
   44.3701  -28.0060 -103.0866 O   0  0  0  0  0  0  0  0  0  0  0  0
   46.4397  -25.7083 -104.4124 C   0  0  0  0  0  0  0  0  0  0  0  0
   47.9552  -25.5863 -104.4853 C   0  0  0  0  0  0  0  0  0  0  0  0
   48.7887  -25.9320 -102.8887 S   0  0  2  0  0  0  0  0  0  0  0  0
   50.5082  -25.3974 -103.1662 C   0  0  0  0  0  0  0  0  0  0  0  0
   48.9906  -27.6893 -103.1709 C   0  0  0  0  0  0  0  0  0  0  0  0
   49.5691  -28.4294 -101.9942 C   0  0  1  0  0  0  0  0  0  0  0  0
   48.5779  -28.4464 -100.9530 O   0  0  0  0  0  0  0  0  0  0  0  0
   49.6711  -29.8124 -102.4988 C   0  0  1  0  0  0  0  0  0  0  0  0
   51.0015  -30.0610 -102.9499 O   0  0  0  0  0  0  0  0  0  0  0  0
   49.3864  -30.6249 -101.2737 C   0  0  1  0  0  0  0  0  0  0  0  0
   50.6011  -30.8533 -100.5295 O   0  0  0  0  0  0  0  0  0  0  0  0
   48.3934  -29.7815 -100.4188 C   0  0  2  0  0  0  0  0  0  0  0  0
   43.6624  -26.7423 -104.6165 O   0  0  0  0  0  0  0  0  0  0  0  0
   44.4365  -32.1536 -103.0484 N   0  0  0  0  0  0  0  0  0  0  0  0
   45.7552  -32.1519 -103.3629 C   0  0  0  0  0  0  0  0  0  0  0  0
   46.6705  -31.5408 -102.5821 N   0  0  0  0  0  0  0  0  0  0  0  0
   46.2897  -30.8336 -101.5058 C   0  0  0  0  0  0  0  0  0  0  0  0
   44.8907  -30.7740 -101.1568 C   0  0  0  0  0  0  0  0  0  0  0  0
   43.9628  -31.4805 -101.9785 C   0  0  0  0  0  0  0  0  0  0  0  0
   42.6118  -31.4740 -101.6966 N   0  0  0  0  0  0  0  0  0  0  0  0
   44.7852  -30.0113 -100.0622 N   0  0  0  0  0  0  0  0  0  0  0  0
   45.9690  -29.5981  -99.7200 C   0  0  0  0  0  0  0  0  0  0  0  0
   46.9389  -30.0787 -100.5684 N   0  0  0  0  0  0  0  0  0  0  0  0
  2  1  1  6  0  0  0
  2  3  1  0  0  0  0
  2  5  1  0  0  0  0
  3  4  1  0  0  0  0
  3 17  1  0  0  0  0
  5  6  1  0  0  0  0
  7  6  1  6  0  0  0
  7  8  1  0  0  0  0
  7  9  1  0  0  0  0
 10  9  1  6  0  0  0
 10 11  1  0  0  0  0
 10 12  1  0  0  0  0
 11 16  1  0  0  0  0
 12 13  1  1  0  0  0
 12 14  1  0  0  0  0
 14 15  1  1  0  0  0
 14 16  1  0  0  0  0
 16 27  1  6  0  0  0
 18 19  2  0  0  0  0
 18 23  1  0  0  0  0
 19 20  1  0  0  0  0
 20 21  2  0  0  0  0
 21 22  1  0  0  0  0
 21 27  1  0  0  0  0
 22 23  2  0  0  0  0
 22 25  1  0  0  0  0
 23 24  1  0  0  0  0
 25 26  2  0  0  0  0
 26 27  1  0  0  0  0
M  END
>  <CHROM.1>
124.88422451,-77.71309735,-84.37595912,-169.05822273,-175.23474939,69.59723956
101.13640711,47.06530870,-28.87951776,-102.51407298,0.72509737,-0.22987538
-0.55157310

>  <Name>
ligand

>  <RI>
0

>  <Rbt.Current_Directory>
/home/itssahil/PROJECTS/Mol_Feturizer/New_Systems/rnas/4L81

>  <Rbt.Executable>
rbdock ($Id: //depot/dev/client3/rdock/2013.1/src/exe/rbdock.cxx#4 $)

>  <Rbt.Library>
libRbt.so (2013.1, Build901 2013/11/27)

>  <Rbt.Parameter_File>
/export/apps/rDock/src/rDock_2013.1_src/data/scripts/dock_solv.prm

>  <Rbt.Receptor>
prm/pocket_docking_2.prm

>  <SCORE>
-17.5886

>  <SCORE.INTER>
-15.1944

>  <SCORE.INTER.CONST>
1

>  <SCORE.INTER.POLAR>
0

>  <SCORE.INTER.ROT>
7

>  <SCORE.INTER.SOLV>
17.9332

>  <SCORE.INTER.VDW>
-24.374

>  <SCORE.INTER.norm>
-0.562757

>  <SCORE.INTRA>
-2.40728

>  <SCORE.INTRA.DIHEDRAL>
-0.0841754

>  <SCORE.INTRA.DIHEDRAL.0>
8.34559

>  <SCORE.INTRA.POLAR>
0

>  <SCORE.INTRA.POLAR.0>
0

>  <SCORE.INTRA.REPUL>
0

>  <SCORE.INTRA.REPUL.0>
0

>  <SCORE.INTRA.SOLV>
-0.194673

>  <SCORE.INTRA.SOLV.lig_0>
-48.829

>  <SCORE.INTRA.VDW>
-2.26785

>  <SCORE.INTRA.VDW.0>
-1.77092

>  <SCORE.INTRA.norm>
-0.0891585

>  <SCORE.RESTR>
0.0130834

>  <SCORE.RESTR.CAVITY>
0.0130834

>  <SCORE.RESTR.norm>
0.000484571

>  <SCORE.SYSTEM>
0

>  <SCORE.SYSTEM.CONST>
0

>  <SCORE.SYSTEM.DIHEDRAL>
0

>  <SCORE.SYSTEM.SOLV>
0

>  <SCORE.SYSTEM.norm>
0

>  <SCORE.heavy>
27

>  <SCORE.norm>
-0.651431

>  <RMSD>
1.302

$$$$
ligand
 OpenBabel11021811503D
libRbt.so/2013.1/901 2013/11/27
 27 29  0  0  0  0  0  0  0  0999 V2000
   47.0311  -28.0339 -105.4190 N   0  0  0  0  0  0  0  0  0  0  0  0
   47.0137  -27.7838 -103.9734 C   0  0  2  0  0  0  0  0  0  0  0  0
   45.5877  -27.8424 -103.4676 C   0  0  0  0  0  0  0  0  0  0  0  0
   44.7055  -28.3125 -104.1700 O   0  0  0  0  0  0  0  0  0  0  0  0
   47.6031  -26.4072 -103.6371 C   0  0  0  0  0  0  0  0  0  0  0  0
   48.5885  -26.5079 -102.4814 C   0  0  0  0  0  0  0  0  0  0  0  0
   50.3188  -26.7798 -103.0248 S   0  0  2  0  0  0  0  0  0  0  0  0
   50.3198  -26.2508 -104.7683 C   0  0  0  0  0  0  0  0  0  0  0  0
   50.1533  -28.5470 -103.2664 C   0  0  0  0  0  0  0  0  0  0  0  0
   50.5936  -29.3644 -102.0812 C   0  0  1  0  0  0  0  0  0  0  0  0
   49.6622  -29.1282 -101.0118 O   0  0  0  0  0  0  0  0  0  0  0  0
   50.3648  -30.7487 -102.5385 C   0  0  1  0  0  0  0  0  0  0  0  0
   51.5885  -31.3031 -103.0186 O   0  0  0  0  0  0  0  0  0  0  0  0
   49.9500  -31.4410 -101.2772 C   0  0  1  0  0  0  0  0  0  0  0  0
   51.1088  -31.9157 -100.5608 O   0  0  0  0  0  0  0  0  0  0  0  0
   49.2028  -30.3718 -100.4249 C   0  0  2  0  0  0  0  0  0  0  0  0
   45.3147  -27.4526 -102.3458 O   0  0  0  0  0  0  0  0  0  0  0  0
   44.7309  -31.7416 -102.9398 N   0  0  0  0  0  0  0  0  0  0  0  0
   46.0058  -32.0204 -103.3072 C   0  0  0  0  0  0  0  0  0  0  0  0
   47.0600  -31.6476 -102.5518 N   0  0  0  0  0  0  0  0  0  0  0  0
   46.8822  -30.9050 -101.4471 C   0  0  0  0  0  0  0  0  0  0  0  0
   45.5439  -30.5499 -101.0406 C   0  0  0  0  0  0  0  0  0  0  0  0
   44.4549  -31.0118 -101.8383 C   0  0  0  0  0  0  0  0  0  0  0  0
   43.1493  -30.7170 -101.5020 N   0  0  0  0  0  0  0  0  0  0  0  0
   45.6473  -29.8142  -99.9276 N   0  0  0  0  0  0  0  0  0  0  0  0
   46.9043  -29.6808  -99.6252 C   0  0  0  0  0  0  0  0  0  0  0  0
   47.7142  -30.3382 -100.5216 N   0  0  0  0  0  0  0  0  0  0  0  0
  2  1  1  6  0  0  0
  2  3  1  0  0  0  0
  2  5  1  0  0  0  0
  3  4  1  0  0  0  0
  3 17  1  0  0  0  0
  5  6  1  0  0  0  0
  7  6  1  1  0  0  0
  7  8  1  0  0  0  0
  7  9  1  0  0  0  0
 10  9  1  6  0  0  0
 10 11  1  0  0  0  0
 10 12  1  0  0  0  0
 11 16  1  0  0  0  0
 12 13  1  1  0  0  0
 12 14  1  0  0  0  0
 14 15  1  1  0  0  0
 14 16  1  0  0  0  0
 16 27  1  6  0  0  0
 18 19  2  0  0  0  0
 18 23  1  0  0  0  0
 19 20  1  0  0  0  0
 20 21  2  0  0  0  0
 21 22  1  0  0  0  0
 21 27  1  0  0  0  0
 22 23  2  0  0  0  0
 22 25  1  0  0  0  0
 23 24  1  0  0  0  0
 25 26  2  0  0  0  0
 26 27  1  0  0  0  0
M  END
>  <CHROM.1>
13.80037194,-133.54456979,91.58170897,19.38884737,-95.24579781,68.02394508
97.85090982,47.85634776,-29.34141580,-102.35935154,2.81733349,0.05429584
2.59764093

>  <Name>
ligand

>  <RI>
0

>  <Rbt.Current_Directory>
/home/itssahil/PROJECTS/Mol_Feturizer/New_Systems/rnas/4L81

>  <Rbt.Executable>
rbdock ($Id: //depot/dev/client3/rdock/2013.1/src/exe/rbdock.cxx#4 $)

>  <Rbt.Library>
libRbt.so (2013.1, Build901 2013/11/27)

>  <Rbt.Parameter_File>
/export/apps/rDock/src/rDock_2013.1_src/data/scripts/dock_solv.prm

>  <Rbt.Receptor>
prm/pocket_docking_2.prm

>  <SCORE>
-14.2997

>  <SCORE.INTER>
-16.8532

>  <SCORE.INTER.CONST>
1

>  <SCORE.INTER.POLAR>
0

>  <SCORE.INTER.ROT>
7

>  <SCORE.INTER.SOLV>
15.1029

>  <SCORE.INTER.VDW>
-24.5364

>  <SCORE.INTER.norm>
-0.624191

>  <SCORE.INTRA>
2.49594

>  <SCORE.INTRA.DIHEDRAL>
7.44507

>  <SCORE.INTRA.DIHEDRAL.0>
8.34559

>  <SCORE.INTRA.POLAR>
0

>  <SCORE.INTRA.POLAR.0>
0

>  <SCORE.INTRA.REPUL>
0

>  <SCORE.INTRA.REPUL.0>
0

>  <SCORE.INTRA.SOLV>
0.697535

>  <SCORE.INTRA.SOLV.lig_0>
-48.829

>  <SCORE.INTRA.VDW>
-1.57536

>  <SCORE.INTRA.VDW.0>
-1.77092

>  <SCORE.INTRA.norm>
0.0924424

>  <SCORE.RESTR>
0.057547

>  <SCORE.RESTR.CAVITY>
0.057547

>  <SCORE.RESTR.norm>
0.00213137

>  <SCORE.SYSTEM>
0

>  <SCORE.SYSTEM.CONST>
0

>  <SCORE.SYSTEM.DIHEDRAL>
0

>  <SCORE.SYSTEM.SOLV>
0

>  <SCORE.SYSTEM.norm>
0

>  <SCORE.heavy>
27

>  <SCORE.norm>
-0.529617

>  <RMSD>
1.310

$$$$
ligand
 OpenBabel11021811503D
libRbt.so/2013.1/901 2013/11/27
 27 29  0  0  0  0  0  0  0  0999 V2000
   45.4930  -25.4232 -106.0922 N   0  0  0  0  0  0  0  0  0  0  0  0
   45.6070  -26.6001 -105.2235 C   0  0  2  0  0  0  0  0  0  0  0  0
   44.2318  -27.1869 -104.9847 C   0  0  0  0  0  0  0  0  0  0  0  0
   44.1036  -28.3813 -104.7617 O   0  0  0  0  0  0  0  0  0  0  0  0
   46.2332  -26.2372 -103.8701 C   0  0  0  0  0  0  0  0  0  0  0  0
   47.6148  -25.6270 -104.0592 C   0  0  0  0  0  0  0  0  0  0  0  0
   48.7208  -25.8744 -102.6173 S   0  0  2  0  0  0  0  0  0  0  0  0
   50.2966  -25.1230 -103.1386 C   0  0  0  0  0  0  0  0  0  0  0  0
   49.0949  -27.5897 -102.9730 C   0  0  0  0  0  0  0  0  0  0  0  0
   49.6108  -28.3564 -101.7843 C   0  0  1  0  0  0  0  0  0  0  0  0
   48.5597  -28.4116 -100.8049 O   0  0  0  0  0  0  0  0  0  0  0  0
   49.7580  -29.7239 -102.3190 C   0  0  1  0  0  0  0  0  0  0  0  0
   51.1156  -29.9472 -102.6965 O   0  0  0  0  0  0  0  0  0  0  0  0
   49.4102  -30.5726 -101.1355 C   0  0  1  0  0  0  0  0  0  0  0  0
   50.5810  -30.8098 -100.3266 O   0  0  0  0  0  0  0  0  0  0  0  0
   48.3588  -29.7627 -100.3190 C   0  0  2  0  0  0  0  0  0  0  0  0
   43.2472  -26.4689 -104.9800 O   0  0  0  0  0  0  0  0  0  0  0  0
   44.6053  -32.2459 -103.1373 N   0  0  0  0  0  0  0  0  0  0  0  0
   45.9435  -32.2527 -103.3542 C   0  0  0  0  0  0  0  0  0  0  0  0
   46.7991  -31.6092 -102.5327 N   0  0  0  0  0  0  0  0  0  0  0  0
   46.3404  -30.8619 -101.5156 C   0  0  0  0  0  0  0  0  0  0  0  0
   44.9196  -30.7928 -101.2725 C   0  0  0  0  0  0  0  0  0  0  0  0
   44.0545  -31.5332 -102.1319 C   0  0  0  0  0  0  0  0  0  0  0  0
   42.6864  -31.5197 -101.9503 N   0  0  0  0  0  0  0  0  0  0  0  0
   44.7341  -29.9886 -100.2191 N   0  0  0  0  0  0  0  0  0  0  0  0
   45.8897  -29.5591  -99.8073 C   0  0  0  0  0  0  0  0  0  0  0  0
   46.9192  -30.0696 -100.5631 N   0  0  0  0  0  0  0  0  0  0  0  0
  2  1  1  6  0  0  0
  2  3  1  0  0  0  0
  2  5  1  0  0  0  0
  3  4  1  0  0  0  0
  3 17  1  0  0  0  0
  5  6  1  0  0  0  0
  7  6  1  6  0  0  0
  7  8  1  0  0  0  0
  7  9  1  0  0  0  0
 10  9  1  6  0  0  0
 10 11  1  0  0  0  0
 10 12  1  0  0  0  0
 11 16  1  0  0  0  0
 12 13  1  1  0  0  0
 12 14  1  0  0  0  0
 14 15  1  1  0  0  0
 14 16  1  0  0  0  0
 16 27  1  6  0  0  0
 18 19  2  0  0  0  0
 18 23  1  0  0  0  0
 19 20  1  0  0  0  0
 20 21  2  0  0  0  0
 21 22  1  0  0  0  0
 21 27  1  0  0  0  0
 22 23  2  0  0  0  0
 22 25  1  0  0  0  0
 23 24  1  0  0  0  0
 25 26  2  0  0  0  0
 26 27  1  0  0  0  0
M  END
>  <CHROM.1>
151.52729434,-58.55308099,-153.29031797,177.61127624,-160.02752733,64.52879494
105.04139101,46.99030274,-28.78103280,-102.56537267,0.90645881,-0.31945396
-0.53130038

>  <Name>
ligand

>  <RI>
0

>  <Rbt.Current_Directory>
/home/itssahil/PROJECTS/Mol_Feturizer/New_Systems/rnas/4L81

>  <Rbt.Executable>
rbdock ($Id: //depot/dev/client3/rdock/2013.1/src/exe/rbdock.cxx#4 $)

>  <Rbt.Library>
libRbt.so (2013.1, Build901 2013/11/27)

>  <Rbt.Parameter_File>
/export/apps/rDock/src/rDock_2013.1_src/data/scripts/dock_solv.prm

>  <Rbt.Receptor>
prm/pocket_docking_3.prm

>  <SCORE>
-17.8451

>  <SCORE.INTER>
-16.0043

>  <SCORE.INTER.CONST>
1

>  <SCORE.INTER.POLAR>
0

>  <SCORE.INTER.ROT>
7

>  <SCORE.INTER.SOLV>
21.3779

>  <SCORE.INTER.VDW>
-26.0622

>  <SCORE.INTER.norm>
-0.592753

>  <SCORE.INTRA>
-1.84074

>  <SCORE.INTRA.DIHEDRAL>
-0.708855

>  <SCORE.INTRA.DIHEDRAL.0>
8.34559

>  <SCORE.INTRA.POLAR>
0

>  <SCORE.INTRA.POLAR.0>
0

>  <SCORE.INTRA.REPUL>
0

>  <SCORE.INTRA.REPUL.0>
0

>  <SCORE.INTRA.SOLV>
-0.600553

>  <SCORE.INTRA.SOLV.lig_0>
-48.829

>  <SCORE.INTRA.VDW>
-1.18604

>  <SCORE.INTRA.VDW.0>
-1.77092

>  <SCORE.INTRA.norm>
-0.0681757

>  <SCORE.RESTR>
0

>  <SCORE.RESTR.CAVITY>
0

>  <SCORE.RESTR.norm>
0

>  <SCORE.SYSTEM>
0

>  <SCORE.SYSTEM.CONST>
0

>  <SCORE.SYSTEM.DIHEDRAL>
0

>  <SCORE.SYSTEM.SOLV>
0

>  <SCORE.SYSTEM.norm>
0

>  <SCORE.heavy>
27

>  <SCORE.norm>
-0.660929

>  <RMSD>
1.321

$$$$
ligand
 OpenBabel11021811503D
libRbt.so/2013.1/901 2013/11/27
 27 29  0  0  0  0  0  0  0  0999 V2000
   45.8289  -25.6847 -105.6212 N   0  0  0  0  0  0  0  0  0  0  0  0
   45.8673  -27.0572 -105.1041 C   0  0  2  0  0  0  0  0  0  0  0  0
   45.7023  -27.0350 -103.5991 C   0  0  0  0  0  0  0  0  0  0  0  0
   45.9460  -28.0341 -102.9394 O   0  0  0  0  0  0  0  0  0  0  0  0
   47.1946  -27.7469 -105.4474 C   0  0  0  0  0  0  0  0  0  0  0  0
   48.3761  -26.8595 -105.0820 C   0  0  0  0  0  0  0  0  0  0  0  0
   48.9159  -27.0510 -103.3397 S   0  0  2  0  0  0  0  0  0  0  0  0
   50.4389  -26.0560 -103.2400 C   0  0  0  0  0  0  0  0  0  0  0  0
   49.6506  -28.6700 -103.5586 C   0  0  0  0  0  0  0  0  0  0  0  0
   50.2078  -29.2589 -102.2899 C   0  0  1  0  0  0  0  0  0  0  0  0
   49.2794  -28.9791 -101.2285 O   0  0  0  0  0  0  0  0  0  0  0  0
   50.1294  -30.7105 -102.5440 C   0  0  1  0  0  0  0  0  0  0  0  0
   51.3977  -31.1881 -102.9896 O   0  0  0  0  0  0  0  0  0  0  0  0
   49.8247  -31.2602 -101.1850 C   0  0  1  0  0  0  0  0  0  0  0  0
   51.0459  -31.4984 -100.4546 O   0  0  0  0  0  0  0  0  0  0  0  0
   48.9788  -30.1710 -100.4597 C   0  0  2  0  0  0  0  0  0  0  0  0
   45.3580  -26.0132 -103.0314 O   0  0  0  0  0  0  0  0  0  0  0  0
   44.5351  -31.1140 -103.2097 N   0  0  0  0  0  0  0  0  0  0  0  0
   45.8036  -31.0487 -103.6837 C   0  0  0  0  0  0  0  0  0  0  0  0
   46.8571  -30.8420 -102.8662 N   0  0  0  0  0  0  0  0  0  0  0  0
   46.6720  -30.6045 -101.5574 C   0  0  0  0  0  0  0  0  0  0  0  0
   45.3342  -30.6236 -101.0168 C   0  0  0  0  0  0  0  0  0  0  0  0
   44.2541  -30.9009 -101.9067 C   0  0  0  0  0  0  0  0  0  0  0  0
   42.9509  -30.9442 -101.4547 N   0  0  0  0  0  0  0  0  0  0  0  0
   45.4288  -30.3554  -99.7092 N   0  0  0  0  0  0  0  0  0  0  0  0
   46.6788  -30.1681  -99.4061 C   0  0  0  0  0  0  0  0  0  0  0  0
   47.4944  -30.3161 -100.5036 N   0  0  0  0  0  0  0  0  0  0  0  0
  2  1  1  1  0  0  0
  2  3  1  0  0  0  0
  2  5  1  0  0  0  0
  3  4  1  0  0  0  0
  3 17  1  0  0  0  0
  5  6  1  0  0  0  0
  7  6  1  6  0  0  0
  7  8  1  0  0  0  0
  7  9  1  0  0  0  0
 10  9  1  6  0  0  0
 10 11  1  0  0  0  0
 10 12  1  0  0  0  0
 11 16  1  0  0  0  0
 12 13  1  1  0  0  0
 12 14  1  0  0  0  0
 14 15  1  1  0  0  0
 14 16  1  0  0  0  0
 16 27  1  6  0  0  0
 18 19  2  0  0  0  0
 18 23  1  0  0  0  0
 19 20  1  0  0  0  0
 20 21  2  0  0  0  0
 21 22  1  0  0  0  0
 21 27  1  0  0  0  0
 22 23  2  0  0  0  0
 22 25  1  0  0  0  0
 23 24  1  0  0  0  0
 25 26  2  0  0  0  0
 26 27  1  0  0  0  0
M  END
>  <CHROM.1>
-166.61562916,49.09254532,86.54611543,173.17229230,-177.98567192,41.30979621
67.37145130,47.55226315,-29.12221182,-102.55097819,-2.13524215,0.03020866
2.47659888

>  <Name>
ligand

>  <RI>
0

>  <Rbt.Current_Directory>
/home/itssahil/PROJECTS/Mol_Feturizer/New_Systems/rnas/4L81

>  <Rbt.Executable>
rbdock ($Id: //depot/dev/client3/rdock/2013.1/src/exe/rbdock.cxx#4 $)

>  <Rbt.Library>
libRbt.so (2013.1, Build901 2013/11/27)

>  <Rbt.Parameter_File>
/export/apps/rDock/src/rDock_2013.1_src/data/scripts/dock_solv.prm

>  <Rbt.Receptor>
prm/pocket_docking_2.prm

>  <SCORE>
-15.0227

>  <SCORE.INTER>
-12.0028

>  <SCORE.INTER.CONST>
1

>  <SCORE.INTER.POLAR>
0

>  <SCORE.INTER.ROT>
7

>  <SCORE.INTER.SOLV>
17.0523

>  <SCORE.INTER.VDW>
-21.9526

>  <SCORE.INTER.norm>
-0.444546

>  <SCORE.INTRA>
-3.01996

>  <SCORE.INTRA.DIHEDRAL>
-0.957345

>  <SCORE.INTRA.DIHEDRAL.0>
8.34559

>  <SCORE.INTRA.POLAR>
0

>  <SCORE.INTRA.POLAR.0>
0

>  <SCORE.INTRA.REPUL>
0

>  <SCORE.INTRA.REPUL.0>
0

>  <SCORE.INTRA.SOLV>
0.0583468

>  <SCORE.INTRA.SOLV.lig_0>
-48.829

>  <SCORE.INTRA.VDW>
-2.57046

>  <SCORE.INTRA.VDW.0>
-1.77092

>  <SCORE.INTRA.norm>
-0.111851

>  <SCORE.RESTR>
0

>  <SCORE.RESTR.CAVITY>
0

>  <SCORE.RESTR.norm>
0

>  <SCORE.SYSTEM>
0

>  <SCORE.SYSTEM.CONST>
0

>  <SCORE.SYSTEM.DIHEDRAL>
0

>  <SCORE.SYSTEM.SOLV>
0

>  <SCORE.SYSTEM.norm>
0

>  <SCORE.heavy>
27

>  <SCORE.norm>
-0.556397

>  <RMSD>
1.365

$$$$
ligand
 OpenBabel11021811503D
libRbt.so/2013.1/901 2013/11/27
 27 29  0  0  0  0  0  0  0  0999 V2000
   44.4671  -28.5842 -105.5030 N   0  0  0  0  0  0  0  0  0  0  0  0
   45.6188  -28.0531 -104.7653 C   0  0  2  0  0  0  0  0  0  0  0  0
   45.3056  -26.6538 -104.2789 C   0  0  0  0  0  0  0  0  0  0  0  0
   45.1769  -25.7395 -105.0791 O   0  0  0  0  0  0  0  0  0  0  0  0
   46.8730  -28.0020 -105.6484 C   0  0  0  0  0  0  0  0  0  0  0  0
   48.0470  -27.4029 -104.8871 C   0  0  0  0  0  0  0  0  0  0  0  0
   48.1828  -28.0154 -103.1638 S   0  0  2  0  0  0  0  0  0  0  0  0
   48.2485  -26.4954 -102.1614 C   0  0  0  0  0  0  0  0  0  0  0  0
   49.9354  -28.3777 -103.2420 C   0  0  0  0  0  0  0  0  0  0  0  0
   50.4360  -29.2013 -102.0852 C   0  0  1  0  0  0  0  0  0  0  0  0
   49.5256  -29.0195 -100.9875 O   0  0  0  0  0  0  0  0  0  0  0  0
   50.2446  -30.5839 -102.5642 C   0  0  1  0  0  0  0  0  0  0  0  0
   51.4741  -31.0843 -103.0870 O   0  0  0  0  0  0  0  0  0  0  0  0
   49.8885  -31.3149 -101.3069 C   0  0  1  0  0  0  0  0  0  0  0  0
   51.0822  -31.7609 -100.6305 O   0  0  0  0  0  0  0  0  0  0  0  0
   49.1266  -30.2900 -100.4141 C   0  0  2  0  0  0  0  0  0  0  0  0
   45.1469  -26.4350 -103.0907 O   0  0  0  0  0  0  0  0  0  0  0  0
   44.6427  -31.6215 -102.9280 N   0  0  0  0  0  0  0  0  0  0  0  0
   45.9166  -31.8165 -103.3488 C   0  0  0  0  0  0  0  0  0  0  0  0
   46.9762  -31.4667 -102.5899 N   0  0  0  0  0  0  0  0  0  0  0  0
   46.8008  -30.8280 -101.4217 C   0  0  0  0  0  0  0  0  0  0  0  0
   45.4616  -30.5629 -100.9541 C   0  0  0  0  0  0  0  0  0  0  0  0
   44.3695  -30.9992 -101.7617 C   0  0  0  0  0  0  0  0  0  0  0  0
   43.0633  -30.7869 -101.3699 N   0  0  0  0  0  0  0  0  0  0  0  0
   45.5675  -29.9204  -99.7850 N   0  0  0  0  0  0  0  0  0  0  0  0
   46.8264  -29.7624  -99.5027 C   0  0  0  0  0  0  0  0  0  0  0  0
   47.6357  -30.3084 -100.4715 N   0  0  0  0  0  0  0  0  0  0  0  0
  2  1  1  6  0  0  0
  2  3  1  0  0  0  0
  2  5  1  0  0  0  0
  3  4  1  0  0  0  0
  3 17  1  0  0  0  0
  5  6  1  0  0  0  0
  7  6  1  6  0  0  0
  7  8  1  0  0  0  0
  7  9  1  0  0  0  0
 10  9  1  6  0  0  0
 10 11  1  0  0  0  0
 10 12  1  0  0  0  0
 11 16  1  0  0  0  0
 12 13  1  1  0  0  0
 12 14  1  0  0  0  0
 14 15  1  1  0  0  0
 14 16  1  0  0  0  0
 16 27  1  6  0  0  0
 18 19  2  0  0  0  0
 18 23  1  0  0  0  0
 19 20  1  0  0  0  0
 20 21  2  0  0  0  0
 21 22  1  0  0  0  0
 21 27  1  0  0  0  0
 22 23  2  0  0  0  0
 22 25  1  0  0  0  0
 23 24  1  0  0  0  0
 25 26  2  0  0  0  0
 26 27  1  0  0  0  0
M  END
>  <CHROM.1>
-67.71968343,177.95877130,42.58533874,-126.96445859,-167.50699798,-23.01487307
94.09029467,47.35991447,-29.33137193,-102.53766844,-2.44780121,0.05015177
2.44149328

>  <Name>
ligand

>  <RI>
0

>  <Rbt.Current_Directory>
/home/itssahil/PROJECTS/Mol_Feturizer/New_Systems/rnas/4L81

>  <Rbt.Executable>
rbdock ($Id: //depot/dev/client3/rdock/2013.1/src/exe/rbdock.cxx#4 $)

>  <Rbt.Library>
libRbt.so (2013.1, Build901 2013/11/27)

>  <Rbt.Parameter_File>
/export/apps/rDock/src/rDock_2013.1_src/data/scripts/dock_solv.prm

>  <Rbt.Receptor>
prm/pocket_docking_2.prm

>  <SCORE>
-11.5235

>  <SCORE.INTER>
-11.7029

>  <SCORE.INTER.CONST>
1

>  <SCORE.INTER.POLAR>
0

>  <SCORE.INTER.ROT>
7

>  <SCORE.INTER.SOLV>
18.5389

>  <SCORE.INTER.VDW>
-22.2483

>  <SCORE.INTER.norm>
-0.433443

>  <SCORE.INTRA>
0.129368

>  <SCORE.INTRA.DIHEDRAL>
4.69371

>  <SCORE.INTRA.DIHEDRAL.0>
8.34559

>  <SCORE.INTRA.POLAR>
0

>  <SCORE.INTRA.POLAR.0>
0

>  <SCORE.INTRA.REPUL>
0

>  <SCORE.INTRA.REPUL.0>
0

>  <SCORE.INTRA.SOLV>
-0.771988

>  <SCORE.INTRA.SOLV.lig_0>
-48.829

>  <SCORE.INTRA.VDW>
-1.83149

>  <SCORE.INTRA.VDW.0>
-1.77092

>  <SCORE.INTRA.norm>
0.0047914

>  <SCORE.RESTR>
0.0500833

>  <SCORE.RESTR.CAVITY>
0.0500833

>  <SCORE.RESTR.norm>
0.00185494

>  <SCORE.SYSTEM>
0

>  <SCORE.SYSTEM.CONST>
0

>  <SCORE.SYSTEM.DIHEDRAL>
0

>  <SCORE.SYSTEM.SOLV>
0

>  <SCORE.SYSTEM.norm>
0

>  <SCORE.heavy>
27

>  <SCORE.norm>
-0.426796

>  <RMSD>
1.399

$$$$
ligand
 OpenBabel11021811503D
libRbt.so/2013.1/901 2013/11/27
 27 29  0  0  0  0  0  0  0  0999 V2000
   45.4610  -25.3945 -106.1480 N   0  0  0  0  0  0  0  0  0  0  0  0
   46.4122  -26.2434 -105.4219 C   0  0  2  0  0  0  0  0  0  0  0  0
   46.0706  -26.2375 -103.9467 C   0  0  0  0  0  0  0  0  0  0  0  0
   45.3293  -27.0915 -103.4843 O   0  0  0  0  0  0  0  0  0  0  0  0
   47.8534  -25.7463 -105.5992 C   0  0  0  0  0  0  0  0  0  0  0  0
   48.8502  -26.8521 -105.2824 C   0  0  0  0  0  0  0  0  0  0  0  0
   49.0934  -27.1165 -103.4840 S   0  0  2  0  0  0  0  0  0  0  0  0
   50.5756  -26.1323 -103.0919 C   0  0  0  0  0  0  0  0  0  0  0  0
   49.8591  -28.7281 -103.6436 C   0  0  0  0  0  0  0  0  0  0  0  0
   50.3352  -29.3047 -102.3368 C   0  0  1  0  0  0  0  0  0  0  0  0
   49.3611  -28.9803 -101.3304 O   0  0  0  0  0  0  0  0  0  0  0  0
   50.2322  -30.7587 -102.5669 C   0  0  1  0  0  0  0  0  0  0  0  0
   51.5089  -31.2768 -102.9371 O   0  0  0  0  0  0  0  0  0  0  0  0
   49.8442  -31.2729 -101.2151 C   0  0  1  0  0  0  0  0  0  0  0  0
   51.0198  -31.5264 -100.4182 O   0  0  0  0  0  0  0  0  0  0  0  0
   48.9908  -30.1484 -100.5555 C   0  0  2  0  0  0  0  0  0  0  0  0
   46.5575  -25.4029 -103.2042 O   0  0  0  0  0  0  0  0  0  0  0  0
   44.7084  -32.0218 -103.0753 N   0  0  0  0  0  0  0  0  0  0  0  0
   46.0096  -32.1940 -103.4146 C   0  0  0  0  0  0  0  0  0  0  0  0
   47.0117  -31.6967 -102.6601 N   0  0  0  0  0  0  0  0  0  0  0  0
   46.7472  -30.9333 -101.5873 C   0  0  0  0  0  0  0  0  0  0  0  0
   45.3751  -30.6896 -101.2129 C   0  0  0  0  0  0  0  0  0  0  0  0
   44.3473  -31.2804 -102.0066 C   0  0  0  0  0  0  0  0  0  0  0  0
   43.0144  -31.0963 -101.6995 N   0  0  0  0  0  0  0  0  0  0  0  0
   45.3910  -29.9065 -100.1278 N   0  0  0  0  0  0  0  0  0  0  0  0
   46.6250  -29.6453  -99.8139 C   0  0  0  0  0  0  0  0  0  0  0  0
   47.5074  -30.2573 -100.6734 N   0  0  0  0  0  0  0  0  0  0  0  0
  2  1  1  6  0  0  0
  2  3  1  0  0  0  0
  2  5  1  0  0  0  0
  3  4  1  0  0  0  0
  3 17  1  0  0  0  0
  5  6  1  0  0  0  0
  7  6  1  6  0  0  0
  7  8  1  0  0  0  0
  7  9  1  0  0  0  0
 10  9  1  6  0  0  0
 10 11  1  0  0  0  0
 10 12  1  0  0  0  0
 11 16  1  0  0  0  0
 12 13  1  1  0  0  0
 12 14  1  0  0  0  0
 14 15  1  1  0  0  0
 14 16  1  0  0  0  0
 16 27  1  6  0  0  0
 18 19  2  0  0  0  0
 18 23  1  0  0  0  0
 19 20  1  0  0  0  0
 20 21  2  0  0  0  0
 21 22  1  0  0  0  0
 21 27  1  0  0  0  0
 22 23  2  0  0  0  0
 22 25  1  0  0  0  0
 23 24  1  0  0  0  0
 25 26  2  0  0  0  0
 26 27  1  0  0  0  0
M  END
>  <CHROM.1>
92.14460005,-160.08342989,-78.15506041,-95.77891121,175.72298594,38.85643747
90.73857186,47.70033962,-29.03583853,-102.68147582,1.58684501,-0.05943392
-0.56007674

>  <Name>
ligand

>  <RI>
0

>  <Rbt.Current_Directory>
/home/itssahil/PROJECTS/Mol_Feturizer/New_Systems/rnas/4L81

>  <Rbt.Executable>
rbdock ($Id: //depot/dev/client3/rdock/2013.1/src/exe/rbdock.cxx#4 $)

>  <Rbt.Library>
libRbt.so (2013.1, Build901 2013/11/27)

>  <Rbt.Parameter_File>
/export/apps/rDock/src/rDock_2013.1_src/data/scripts/dock_solv.prm

>  <Rbt.Receptor>
prm/pocket_docking_2.prm

>  <SCORE>
-14.9897

>  <SCORE.INTER>
-13.6205

>  <SCORE.INTER.CONST>
1

>  <SCORE.INTER.POLAR>
0

>  <SCORE.INTER.ROT>
7

>  <SCORE.INTER.SOLV>
18.4465

>  <SCORE.INTER.VDW>
-23.4959

>  <SCORE.INTER.norm>
-0.504465

>  <SCORE.INTRA>
-1.36914

>  <SCORE.INTRA.DIHEDRAL>
0.645293

>  <SCORE.INTRA.DIHEDRAL.0>
8.34559

>  <SCORE.INTRA.POLAR>
0

>  <SCORE.INTRA.POLAR.0>
0

>  <SCORE.INTRA.REPUL>
0

>  <SCORE.INTRA.REPUL.0>
0

>  <SCORE.INTRA.SOLV>
-1.11319

>  <SCORE.INTRA.SOLV.lig_0>
-48.829

>  <SCORE.INTRA.VDW>
-1.13519

>  <SCORE.INTRA.VDW.0>
-1.77092

>  <SCORE.INTRA.norm>
-0.050709

>  <SCORE.RESTR>
0

>  <SCORE.RESTR.CAVITY>
0

>  <SCORE.RESTR.norm>
0

>  <SCORE.SYSTEM>
0

>  <SCORE.SYSTEM.CONST>
0

>  <SCORE.SYSTEM.DIHEDRAL>
0

>  <SCORE.SYSTEM.SOLV>
0

>  <SCORE.SYSTEM.norm>
0

>  <SCORE.heavy>
27

>  <SCORE.norm>
-0.555174

>  <RMSD>
1.481

$$$$
ligand
 OpenBabel11021811503D
libRbt.so/2013.1/901 2013/11/27
 27 29  0  0  0  0  0  0  0  0999 V2000
   44.5325  -27.8325 -105.8311 N   0  0  0  0  0  0  0  0  0  0  0  0
   45.5237  -28.0837 -104.7789 C   0  0  2  0  0  0  0  0  0  0  0  0
   45.0209  -27.5206 -103.4663 C   0  0  0  0  0  0  0  0  0  0  0  0
   45.3989  -27.9990 -102.4075 O   0  0  0  0  0  0  0  0  0  0  0  0
   46.8721  -27.4319 -105.1141 C   0  0  0  0  0  0  0  0  0  0  0  0
   48.0210  -28.2159 -104.4958 C   0  0  0  0  0  0  0  0  0  0  0  0
   48.3117  -27.8074 -102.7317 S   0  0  2  0  0  0  0  0  0  0  0  0
   48.3690  -25.9865 -102.7063 C   0  0  0  0  0  0  0  0  0  0  0  0
   50.0708  -28.1446 -102.7592 C   0  0  0  0  0  0  0  0  0  0  0  0
   50.4857  -29.2726 -101.8524 C   0  0  1  0  0  0  0  0  0  0  0  0
   49.5651  -29.3131 -100.7489 O   0  0  0  0  0  0  0  0  0  0  0  0
   50.2093  -30.4674 -102.6733 C   0  0  1  0  0  0  0  0  0  0  0  0
   51.4125  -30.9053 -103.3024 O   0  0  0  0  0  0  0  0  0  0  0  0
   49.7740  -31.4692 -101.6491 C   0  0  1  0  0  0  0  0  0  0  0  0
   50.9176  -32.1608 -101.1058 O   0  0  0  0  0  0  0  0  0  0  0  0
   49.0651  -30.6555 -100.5250 C   0  0  2  0  0  0  0  0  0  0  0  0
   44.2629  -26.5667 -103.4544 O   0  0  0  0  0  0  0  0  0  0  0  0
   44.4947  -31.6712 -103.0306 N   0  0  0  0  0  0  0  0  0  0  0  0
   45.7492  -31.9853 -103.4375 C   0  0  0  0  0  0  0  0  0  0  0  0
   46.8315  -31.7057 -102.6817 N   0  0  0  0  0  0  0  0  0  0  0  0
   46.7062  -31.0221 -101.5326 C   0  0  0  0  0  0  0  0  0  0  0  0
   45.3924  -30.6312 -101.0812 C   0  0  0  0  0  0  0  0  0  0  0  0
   44.2706  -30.9957 -101.8836 C   0  0  0  0  0  0  0  0  0  0  0  0
   42.9856  -30.6624 -101.5063 N   0  0  0  0  0  0  0  0  0  0  0  0
   45.5478  -29.9677  -99.9295 N   0  0  0  0  0  0  0  0  0  0  0  0
   46.8144  -29.9094  -99.6435 C   0  0  0  0  0  0  0  0  0  0  0  0
   47.5784  -30.5489 -100.5916 N   0  0  0  0  0  0  0  0  0  0  0  0
  2  1  1  6  0  0  0
  2  3  1  0  0  0  0
  2  5  1  0  0  0  0
  3  4  1  0  0  0  0
  3 17  1  0  0  0  0
  5  6  1  0  0  0  0
  7  6  1  6  0  0  0
  7  8  1  0  0  0  0
  7  9  1  0  0  0  0
 10  9  1  6  0  0  0
 10 11  1  0  0  0  0
 10 12  1  0  0  0  0
 11 16  1  0  0  0  0
 12 13  1  1  0  0  0
 12 14  1  0  0  0  0
 14 15  1  1  0  0  0
 14 16  1  0  0  0  0
 16 27  1  6  0  0  0
 18 19  2  0  0  0  0
 18 23  1  0  0  0  0
 19 20  1  0  0  0  0
 20 21  2  0  0  0  0
 21 22  1  0  0  0  0
 21 27  1  0  0  0  0
 22 23  2  0  0  0  0
 22 25  1  0  0  0  0
 23 24  1  0  0  0  0
 25 26  2  0  0  0  0
 26 27  1  0  0  0  0
M  END
>  <CHROM.1>
153.57904115,-150.80580200,-82.17180499,-49.34007712,-117.18918967,-29.43756247
110.65643233,47.29961100,-29.46458712,-102.43419504,-2.71673377,0.05754023
2.54632481

>  <Name>
ligand

>  <RI>
0

>  <Rbt.Current_Directory>
/home/itssahil/PROJECTS/Mol_Feturizer/New_Systems/rnas/4L81

>  <Rbt.Executable>
rbdock ($Id: //depot/dev/client3/rdock/2013.1/src/exe/rbdock.cxx#4 $)

>  <Rbt.Library>
libRbt.so (2013.1, Build901 2013/11/27)

>  <Rbt.Parameter_File>
/export/apps/rDock/src/rDock_2013.1_src/data/scripts/dock_solv.prm

>  <Rbt.Receptor>
prm/pocket_docking_2.prm

>  <SCORE>
-12.4511

>  <SCORE.INTER>
-12.1277

>  <SCORE.INTER.CONST>
1

>  <SCORE.INTER.POLAR>
0

>  <SCORE.INTER.ROT>
7

>  <SCORE.INTER.SOLV>
19.267

>  <SCORE.INTER.VDW>
-22.7741

>  <SCORE.INTER.norm>
-0.449175

>  <SCORE.INTRA>
-0.323354

>  <SCORE.INTRA.DIHEDRAL>
7.13588

>  <SCORE.INTRA.DIHEDRAL.0>
8.34559

>  <SCORE.INTRA.POLAR>
0

>  <SCORE.INTRA.POLAR.0>
0

>  <SCORE.INTRA.REPUL>
0

>  <SCORE.INTRA.REPUL.0>
0

>  <SCORE.INTRA.SOLV>
-0.632574

>  <SCORE.INTRA.SOLV.lig_0>
-48.829

>  <SCORE.INTRA.VDW>
-3.57501

>  <SCORE.INTRA.VDW.0>
-1.77092

>  <SCORE.INTRA.norm>
-0.0119761

>  <SCORE.RESTR>
0

>  <SCORE.RESTR.CAVITY>
0

>  <SCORE.RESTR.norm>
0

>  <SCORE.SYSTEM>
0

>  <SCORE.SYSTEM.CONST>
0

>  <SCORE.SYSTEM.DIHEDRAL>
0

>  <SCORE.SYSTEM.SOLV>
0

>  <SCORE.SYSTEM.norm>
0

>  <SCORE.heavy>
27

>  <SCORE.norm>
-0.461151

>  <RMSD>
1.498

$$$$
ligand
 OpenBabel11021811503D
libRbt.so/2013.1/901 2013/11/27
 27 29  0  0  0  0  0  0  0  0999 V2000
   47.1213  -27.1778 -107.0834 N   0  0  0  0  0  0  0  0  0  0  0  0
   46.1152  -27.0244 -106.0265 C   0  0  2  0  0  0  0  0  0  0  0  0
   45.4741  -25.6569 -106.1339 C   0  0  0  0  0  0  0  0  0  0  0  0
   46.0890  -24.7276 -106.6350 O   0  0  0  0  0  0  0  0  0  0  0  0
   46.7416  -27.1705 -104.6331 C   0  0  0  0  0  0  0  0  0  0  0  0
   47.9158  -26.2166 -104.4648 C   0  0  0  0  0  0  0  0  0  0  0  0
   48.7599  -26.3835 -102.8452 S   0  0  2  0  0  0  0  0  0  0  0  0
   50.3078  -25.4464 -103.0581 C   0  0  0  0  0  0  0  0  0  0  0  0
   49.3871  -28.0351 -103.1414 C   0  0  0  0  0  0  0  0  0  0  0  0
   49.8744  -28.7302 -101.8980 C   0  0  1  0  0  0  0  0  0  0  0  0
   48.8473  -28.6178 -100.8983 O   0  0  0  0  0  0  0  0  0  0  0  0
   49.9061  -30.1470 -102.3093 C   0  0  1  0  0  0  0  0  0  0  0  0
   51.2334  -30.5058 -102.6900 O   0  0  0  0  0  0  0  0  0  0  0  0
   49.5262  -30.8582 -101.0475 C   0  0  1  0  0  0  0  0  0  0  0  0
   50.6963  -31.1111 -100.2423 O   0  0  0  0  0  0  0  0  0  0  0  0
   48.5589  -29.9011 -100.2884 C   0  0  2  0  0  0  0  0  0  0  0  0
   44.3303  -25.4803 -105.7526 O   0  0  0  0  0  0  0  0  0  0  0  0
   44.5480  -32.0386 -103.0347 N   0  0  0  0  0  0  0  0  0  0  0  0
   45.8725  -32.1069 -103.3157 C   0  0  0  0  0  0  0  0  0  0  0  0
   46.7993  -31.5511 -102.5074 N   0  0  0  0  0  0  0  0  0  0  0  0
   46.4298  -30.8306 -101.4361 C   0  0  0  0  0  0  0  0  0  0  0  0
   45.0276  -30.6969 -101.1222 C   0  0  0  0  0  0  0  0  0  0  0  0
   44.0842  -31.3470 -101.9723 C   0  0  0  0  0  0  0  0  0  0  0  0
   42.7288  -31.2687 -101.7247 N   0  0  0  0  0  0  0  0  0  0  0  0
   44.9355  -29.9361 -100.0252 N   0  0  0  0  0  0  0  0  0  0  0  0
   46.1308  -29.5900  -99.6499 C   0  0  0  0  0  0  0  0  0  0  0  0
   47.0947  -30.1177 -100.4770 N   0  0  0  0  0  0  0  0  0  0  0  0
  2  1  1  6  0  0  0
  2  3  1  0  0  0  0
  2  5  1  0  0  0  0
  3  4  1  0  0  0  0
  3 17  1  0  0  0  0
  5  6  1  0  0  0  0
  7  6  1  6  0  0  0
  7  8  1  0  0  0  0
  7  9  1  0  0  0  0
 10  9  1  6  0  0  0
 10 11  1  0  0  0  0
 10 12  1  0  0  0  0
 11 16  1  0  0  0  0
 12 13  1  1  0  0  0
 12 14  1  0  0  0  0
 14 15  1  1  0  0  0
 14 16  1  0  0  0  0
 16 27  1  6  0  0  0
 18 19  2  0  0  0  0
 18 23  1  0  0  0  0
 19 20  1  0  0  0  0
 20 21  2  0  0  0  0
 21 22  1  0  0  0  0
 21 27  1  0  0  0  0
 22 23  2  0  0  0  0
 22 25  1  0  0  0  0
 23 24  1  0  0  0  0
 25 26  2  0  0  0  0
 26 27  1  0  0  0  0
M  END
>  <CHROM.1>
-26.55517701,53.86606546,-177.62059293,167.26938773,-165.14249638,49.94368959
96.96293138,47.34371176,-28.79834058,-102.79405193,1.65801094,-0.27298837
-0.70046956

>  <Name>
ligand

>  <RI>
0

>  <Rbt.Current_Directory>
/home/itssahil/PROJECTS/Mol_Feturizer/New_Systems/rnas/4L81

>  <Rbt.Executable>
rbdock ($Id: //depot/dev/client3/rdock/2013.1/src/exe/rbdock.cxx#4 $)

>  <Rbt.Library>
libRbt.so (2013.1, Build901 2013/11/27)

>  <Rbt.Parameter_File>
/export/apps/rDock/src/rDock_2013.1_src/data/scripts/dock_solv.prm

>  <Rbt.Receptor>
prm/pocket_docking_5.prm

>  <SCORE>
-17.7113

>  <SCORE.INTER>
-15.3396

>  <SCORE.INTER.CONST>
1

>  <SCORE.INTER.POLAR>
0

>  <SCORE.INTER.ROT>
7

>  <SCORE.INTER.SOLV>
17.454

>  <SCORE.INTER.VDW>
-24.311

>  <SCORE.INTER.norm>
-0.568132

>  <SCORE.INTRA>
-2.37295

>  <SCORE.INTRA.DIHEDRAL>
-3.15091

>  <SCORE.INTRA.DIHEDRAL.0>
8.34559

>  <SCORE.INTRA.POLAR>
0

>  <SCORE.INTRA.POLAR.0>
0

>  <SCORE.INTRA.REPUL>
0

>  <SCORE.INTRA.REPUL.0>
0

>  <SCORE.INTRA.SOLV>
-0.478847

>  <SCORE.INTRA.SOLV.lig_0>
-48.829

>  <SCORE.INTRA.VDW>
-0.558066

>  <SCORE.INTRA.VDW.0>
-1.77092

>  <SCORE.INTRA.norm>
-0.0878869

>  <SCORE.RESTR>
0.00116557

>  <SCORE.RESTR.CAVITY>
0.00116557

>  <SCORE.RESTR.norm>
4.31693e-05

>  <SCORE.SYSTEM>
0

>  <SCORE.SYSTEM.CONST>
0

>  <SCORE.SYSTEM.DIHEDRAL>
0

>  <SCORE.SYSTEM.SOLV>
0

>  <SCORE.SYSTEM.norm>
0

>  <SCORE.heavy>
27

>  <SCORE.norm>
-0.655976

>  <RMSD>
1.500

$$$$
ligand
 OpenBabel11021811503D
libRbt.so/2013.1/901 2013/11/27
 27 29  0  0  0  0  0  0  0  0999 V2000
   46.3324  -28.3582 -104.9099 N   0  0  0  0  0  0  0  0  0  0  0  0
   46.2147  -27.7531 -103.5785 C   0  0  2  0  0  0  0  0  0  0  0  0
   44.9092  -28.1818 -102.9423 C   0  0  0  0  0  0  0  0  0  0  0  0
   44.0437  -28.7183 -103.6174 O   0  0  0  0  0  0  0  0  0  0  0  0
   46.2489  -26.2207 -103.6559 C   0  0  0  0  0  0  0  0  0  0  0  0
   47.6498  -25.7266 -103.9879 C   0  0  0  0  0  0  0  0  0  0  0  0
   48.8544  -25.9955 -102.6315 S   0  0  2  0  0  0  0  0  0  0  0  0
   50.4052  -25.2877 -103.2747 C   0  0  0  0  0  0  0  0  0  0  0  0
   49.1570  -27.7217 -103.0026 C   0  0  0  0  0  0  0  0  0  0  0  0
   49.7040  -28.5047 -101.8388 C   0  0  1  0  0  0  0  0  0  0  0  0
   48.6966  -28.5330 -100.8135 O   0  0  0  0  0  0  0  0  0  0  0  0
   49.7893  -29.8747 -102.3807 C   0  0  1  0  0  0  0  0  0  0  0  0
   51.1221  -30.1345 -102.8186 O   0  0  0  0  0  0  0  0  0  0  0  0
   49.4714  -30.7159 -101.1835 C   0  0  1  0  0  0  0  0  0  0  0  0
   50.6702  -30.9870 -100.4280 O   0  0  0  0  0  0  0  0  0  0  0  0
   48.4803  -29.8791 -100.3202 C   0  0  2  0  0  0  0  0  0  0  0  0
   44.7248  -28.0260 -101.7479 O   0  0  0  0  0  0  0  0  0  0  0  0
   44.5221  -32.0907 -103.0841 N   0  0  0  0  0  0  0  0  0  0  0  0
   45.8450  -32.1013 -103.3802 C   0  0  0  0  0  0  0  0  0  0  0  0
   46.7592  -31.5332 -102.5662 N   0  0  0  0  0  0  0  0  0  0  0  0
   46.3749  -30.8566 -101.4717 C   0  0  0  0  0  0  0  0  0  0  0  0
   44.9723  -30.7846 -101.1402 C   0  0  0  0  0  0  0  0  0  0  0  0
   44.0445  -31.4464 -101.9984 C   0  0  0  0  0  0  0  0  0  0  0  0
   42.6899  -31.4260 -101.7352 N   0  0  0  0  0  0  0  0  0  0  0  0
   44.8639  -30.0580 -100.0216 N   0  0  0  0  0  0  0  0  0  0  0  0
   46.0495  -29.6774  -99.6490 C   0  0  0  0  0  0  0  0  0  0  0  0
   47.0233  -30.1456 -100.5000 N   0  0  0  0  0  0  0  0  0  0  0  0
  2  1  1  6  0  0  0
  2  3  1  0  0  0  0
  2  5  1  0  0  0  0
  3  4  1  0  0  0  0
  3 17  1  0  0  0  0
  5  6  1  0  0  0  0
  7  6  1  6  0  0  0
  7  8  1  0  0  0  0
  7  9  1  0  0  0  0
 10  9  1  6  0  0  0
 10 11  1  0  0  0  0
 10 12  1  0  0  0  0
 11 16  1  0  0  0  0
 12 13  1  1  0  0  0
 12 14  1  0  0  0  0
 14 15  1  1  0  0  0
 14 16  1  0  0  0  0
 16 27  1  6  0  0  0
 18 19  2  0  0  0  0
 18 23  1  0  0  0  0
 19 20  1  0  0  0  0
 20 21  2  0  0  0  0
 21 22  1  0  0  0  0
 21 27  1  0  0  0  0
 22 23  2  0  0  0  0
 22 25  1  0  0  0  0
 23 24  1  0  0  0  0
 25 26  2  0  0  0  0
 26 27  1  0  0  0  0
M  END
>  <CHROM.1>
-13.13293762,-72.10849299,-68.84377282,-178.71088407,-158.36192551,64.82140577
100.78028560,47.16696333,-29.08506829,-102.20674266,0.59489989,-0.17914779
-0.44133853

>  <Name>
ligand

>  <RI>
0

>  <Rbt.Current_Directory>
/home/itssahil/PROJECTS/Mol_Feturizer/New_Systems/rnas/4L81

>  <Rbt.Executable>
rbdock ($Id: //depot/dev/client3/rdock/2013.1/src/exe/rbdock.cxx#4 $)

>  <Rbt.Library>
libRbt.so (2013.1, Build901 2013/11/27)

>  <Rbt.Parameter_File>
/export/apps/rDock/src/rDock_2013.1_src/data/scripts/dock_solv.prm

>  <Rbt.Receptor>
prm/pocket_docking_3.prm

>  <SCORE>
-19.4767

>  <SCORE.INTER>
-15.5437

>  <SCORE.INTER.CONST>
1

>  <SCORE.INTER.POLAR>
0

>  <SCORE.INTER.ROT>
7

>  <SCORE.INTER.SOLV>
16.6751

>  <SCORE.INTER.VDW>
-24.1875

>  <SCORE.INTER.norm>
-0.575694

>  <SCORE.INTRA>
-3.93293

>  <SCORE.INTRA.DIHEDRAL>
-1.63509

>  <SCORE.INTRA.DIHEDRAL.0>
8.34559

>  <SCORE.INTRA.POLAR>
0

>  <SCORE.INTRA.POLAR.0>
0

>  <SCORE.INTRA.REPUL>
0

>  <SCORE.INTRA.REPUL.0>
0

>  <SCORE.INTRA.SOLV>
1.25729

>  <SCORE.INTRA.SOLV.lig_0>
-48.829

>  <SCORE.INTRA.VDW>
-3.74403

>  <SCORE.INTRA.VDW.0>
-1.77092

>  <SCORE.INTRA.norm>
-0.145664

>  <SCORE.RESTR>
0

>  <SCORE.RESTR.CAVITY>
0

>  <SCORE.RESTR.norm>
0

>  <SCORE.SYSTEM>
0

>  <SCORE.SYSTEM.CONST>
0

>  <SCORE.SYSTEM.DIHEDRAL>
0

>  <SCORE.SYSTEM.SOLV>
0

>  <SCORE.SYSTEM.norm>
0

>  <SCORE.heavy>
27

>  <SCORE.norm>
-0.721358

>  <RMSD>
1.504

$$$$
ligand
 OpenBabel11021811503D
libRbt.so/2013.1/901 2013/11/27
 27 29  0  0  0  0  0  0  0  0999 V2000
   46.1449  -28.2360 -105.1152 N   0  0  0  0  0  0  0  0  0  0  0  0
   46.1357  -27.7398 -103.7345 C   0  0  2  0  0  0  0  0  0  0  0  0
   44.8936  -28.2387 -103.0266 C   0  0  0  0  0  0  0  0  0  0  0  0
   44.0911  -28.9450 -103.6181 O   0  0  0  0  0  0  0  0  0  0  0  0
   46.1485  -26.2058 -103.6917 C   0  0  0  0  0  0  0  0  0  0  0  0
   47.5432  -25.6679 -103.9788 C   0  0  0  0  0  0  0  0  0  0  0  0
   48.7173  -25.9190 -102.5925 S   0  0  2  0  0  0  0  0  0  0  0  0
   50.2720  -25.1848 -103.1953 C   0  0  0  0  0  0  0  0  0  0  0  0
   49.0576  -27.6394 -102.9578 C   0  0  0  0  0  0  0  0  0  0  0  0
   49.6005  -28.4118 -101.7850 C   0  0  1  0  0  0  0  0  0  0  0  0
   48.5813  -28.4499 -100.7718 O   0  0  0  0  0  0  0  0  0  0  0  0
   49.7099  -29.7822 -102.3215 C   0  0  1  0  0  0  0  0  0  0  0  0
   51.0510  -30.0263 -102.7425 O   0  0  0  0  0  0  0  0  0  0  0  0
   49.3884  -30.6238 -101.1255 C   0  0  1  0  0  0  0  0  0  0  0  0
   50.5813  -30.8772 -100.3548 O   0  0  0  0  0  0  0  0  0  0  0  0
   48.3763  -29.7971 -100.2768 C   0  0  2  0  0  0  0  0  0  0  0  0
   44.7011  -27.9679 -101.8542 O   0  0  0  0  0  0  0  0  0  0  0  0
   44.4818  -32.0827 -103.0711 N   0  0  0  0  0  0  0  0  0  0  0  0
   45.8086  -32.0802 -103.3495 C   0  0  0  0  0  0  0  0  0  0  0  0
   46.7051  -31.4934 -102.5291 N   0  0  0  0  0  0  0  0  0  0  0  0
   46.2982  -30.8109 -101.4465 C   0  0  0  0  0  0  0  0  0  0  0  0
   44.8905  -30.7526 -101.1342 C   0  0  0  0  0  0  0  0  0  0  0  0
   43.9822  -31.4337 -101.9981 C   0  0  0  0  0  0  0  0  0  0  0  0
   42.6241  -31.4271 -101.7530 N   0  0  0  0  0  0  0  0  0  0  0  0
   44.7586  -30.0166 -100.0244 N   0  0  0  0  0  0  0  0  0  0  0  0
   45.9345  -29.6182  -99.6399 C   0  0  0  0  0  0  0  0  0  0  0  0
   46.9251  -30.0829 -100.4733 N   0  0  0  0  0  0  0  0  0  0  0  0
  2  1  1  6  0  0  0
  2  3  1  0  0  0  0
  2  5  1  0  0  0  0
  3  4  1  0  0  0  0
  3 17  1  0  0  0  0
  5  6  1  0  0  0  0
  7  6  1  6  0  0  0
  7  8  1  0  0  0  0
  7  9  1  0  0  0  0
 10  9  1  6  0  0  0
 10 11  1  0  0  0  0
 10 12  1  0  0  0  0
 11 16  1  0  0  0  0
 12 13  1  1  0  0  0
 12 14  1  0  0  0  0
 14 15  1  1  0  0  0
 14 16  1  0  0  0  0
 16 27  1  6  0  0  0
 18 19  2  0  0  0  0
 18 23  1  0  0  0  0
 19 20  1  0  0  0  0
 20 21  2  0  0  0  0
 21 22  1  0  0  0  0
 21 27  1  0  0  0  0
 22 23  2  0  0  0  0
 22 25  1  0  0  0  0
 23 24  1  0  0  0  0
 25 26  2  0  0  0  0
 26 27  1  0  0  0  0
M  END
>  <CHROM.1>
0.12679435,-77.17189769,-72.98325485,-179.64483816,-158.93190681,64.39757774
101.16806594,47.08257658,-29.03805588,-102.20020294,0.60992936,-0.21461067
-0.46054612

>  <Name>
ligand

>  <RI>
0

>  <Rbt.Current_Directory>
/home/itssahil/PROJECTS/Mol_Feturizer/New_Systems/rnas/4L81

>  <Rbt.Executable>
rbdock ($Id: //depot/dev/client3/rdock/2013.1/src/exe/rbdock.cxx#4 $)

>  <Rbt.Library>
libRbt.so (2013.1, Build901 2013/11/27)

>  <Rbt.Parameter_File>
/export/apps/rDock/src/rDock_2013.1_src/data/scripts/dock_solv.prm

>  <Rbt.Receptor>
prm/pocket_docking_3.prm

>  <SCORE>
-19.3836

>  <SCORE.INTER>
-15.5584

>  <SCORE.INTER.CONST>
1

>  <SCORE.INTER.POLAR>
0

>  <SCORE.INTER.ROT>
7

>  <SCORE.INTER.SOLV>
16.881

>  <SCORE.INTER.VDW>
-24.2659

>  <SCORE.INTER.norm>
-0.576236

>  <SCORE.INTRA>
-3.8252

>  <SCORE.INTRA.DIHEDRAL>
-0.948581

>  <SCORE.INTRA.DIHEDRAL.0>
8.34559

>  <SCORE.INTRA.POLAR>
0

>  <SCORE.INTRA.POLAR.0>
0

>  <SCORE.INTRA.REPUL>
0

>  <SCORE.INTRA.REPUL.0>
0

>  <SCORE.INTRA.SOLV>
0.948035

>  <SCORE.INTRA.SOLV.lig_0>
-48.829

>  <SCORE.INTRA.VDW>
-3.82493

>  <SCORE.INTRA.VDW.0>
-1.77092

>  <SCORE.INTRA.norm>
-0.141674

>  <SCORE.RESTR>
0

>  <SCORE.RESTR.CAVITY>
0

>  <SCORE.RESTR.norm>
0

>  <SCORE.SYSTEM>
0

>  <SCORE.SYSTEM.CONST>
0

>  <SCORE.SYSTEM.DIHEDRAL>
0

>  <SCORE.SYSTEM.SOLV>
0

>  <SCORE.SYSTEM.norm>
0

>  <SCORE.heavy>
27

>  <SCORE.norm>
-0.717911

>  <RMSD>
1.547

$$$$
ligand
 OpenBabel11021811503D
libRbt.so/2013.1/901 2013/11/27
 27 29  0  0  0  0  0  0  0  0999 V2000
   48.3400  -27.7850 -107.0360 N   0  0  0  0  0  0  0  0  0  0  0  0
   47.6000  -27.3654 -105.8405 C   0  0  2  0  0  0  0  0  0  0  0  0
   46.1251  -27.2659 -106.1682 C   0  0  0  0  0  0  0  0  0  0  0  0
   45.7545  -26.6383 -107.1487 O   0  0  0  0  0  0  0  0  0  0  0  0
   48.0879  -26.0025 -105.3308 C   0  0  0  0  0  0  0  0  0  0  0  0
   47.4717  -25.6785 -103.9772 C   0  0  0  0  0  0  0  0  0  0  0  0
   48.6271  -25.9292 -102.5753 S   0  0  2  0  0  0  0  0  0  0  0  0
   50.1650  -25.1206 -103.1238 C   0  0  0  0  0  0  0  0  0  0  0  0
   49.0380  -27.6240 -102.9849 C   0  0  0  0  0  0  0  0  0  0  0  0
   49.5969  -28.4085 -101.8278 C   0  0  1  0  0  0  0  0  0  0  0  0
   48.5889  -28.4639 -100.8042 O   0  0  0  0  0  0  0  0  0  0  0  0
   49.7067  -29.7715 -102.3825 C   0  0  1  0  0  0  0  0  0  0  0  0
   51.0443  -30.0041 -102.8209 O   0  0  0  0  0  0  0  0  0  0  0  0
   49.4019  -30.6295 -101.1938 C   0  0  1  0  0  0  0  0  0  0  0  0
   50.6042  -30.8870 -100.4391 O   0  0  0  0  0  0  0  0  0  0  0  0
   48.3953  -29.8182 -100.3240 C   0  0  2  0  0  0  0  0  0  0  0  0
   45.2999  -27.8373 -105.4772 O   0  0  0  0  0  0  0  0  0  0  0  0
   44.4860  -32.1271 -103.0781 N   0  0  0  0  0  0  0  0  0  0  0  0
   45.8108  -32.1232 -103.3661 C   0  0  0  0  0  0  0  0  0  0  0  0
   46.7117  -31.5300 -102.5553 N   0  0  0  0  0  0  0  0  0  0  0  0
   46.3111  -30.8427 -101.4733 C   0  0  0  0  0  0  0  0  0  0  0  0
   44.9056  -30.7859 -101.1512 C   0  0  0  0  0  0  0  0  0  0  0  0
   43.9926  -31.4736 -102.0050 C   0  0  0  0  0  0  0  0  0  0  0  0
   42.6363  -31.4687 -101.7501 N   0  0  0  0  0  0  0  0  0  0  0  0
   44.7800  -30.0443 -100.0444 N   0  0  0  0  0  0  0  0  0  0  0  0
   45.9578  -29.6413  -99.6704 C   0  0  0  0  0  0  0  0  0  0  0  0
   46.9433  -30.1082 -100.5085 N   0  0  0  0  0  0  0  0  0  0  0  0
  2  1  1  6  0  0  0
  2  3  1  0  0  0  0
  2  5  1  0  0  0  0
  3  4  1  0  0  0  0
  3 17  1  0  0  0  0
  5  6  1  0  0  0  0
  7  6  1  6  0  0  0
  7  8  1  0  0  0  0
  7  9  1  0  0  0  0
 10  9  1  6  0  0  0
 10 11  1  0  0  0  0
 10 12  1  0  0  0  0
 11 16  1  0  0  0  0
 12 13  1  1  0  0  0
 12 14  1  0  0  0  0
 14 15  1  1  0  0  0
 14 16  1  0  0  0  0
 16 27  1  6  0  0  0
 18 19  2  0  0  0  0
 18 23  1  0  0  0  0
 19 20  1  0  0  0  0
 20 21  2  0  0  0  0
 21 22  1  0  0  0  0
 21 27  1  0  0  0  0
 22 23  2  0  0  0  0
 22 25  1  0  0  0  0
 23 24  1  0  0  0  0
 25 26  2  0  0  0  0
 26 27  1  0  0  0  0
M  END
>  <CHROM.1>
-50.17005492,-171.15547252,102.92813741,46.78527434,-159.41109472,61.88074109
102.21628824,47.40171662,-28.88251411,-102.80623314,1.11250675,-0.44265631
-0.85237798

>  <Name>
ligand

>  <RI>
0

>  <Rbt.Current_Directory>
/home/itssahil/PROJECTS/Mol_Feturizer/New_Systems/rnas/4L81

>  <Rbt.Executable>
rbdock ($Id: //depot/dev/client3/rdock/2013.1/src/exe/rbdock.cxx#4 $)

>  <Rbt.Library>
libRbt.so (2013.1, Build901 2013/11/27)

>  <Rbt.Parameter_File>
/export/apps/rDock/src/rDock_2013.1_src/data/scripts/dock_solv.prm

>  <Rbt.Receptor>
prm/pocket_docking_3.prm

>  <SCORE>
-12.3829

>  <SCORE.INTER>
-13.1272

>  <SCORE.INTER.CONST>
1

>  <SCORE.INTER.POLAR>
0

>  <SCORE.INTER.ROT>
7

>  <SCORE.INTER.SOLV>
17.8208

>  <SCORE.INTER.VDW>
-22.9584

>  <SCORE.INTER.norm>
-0.486191

>  <SCORE.INTRA>
0.744253

>  <SCORE.INTRA.DIHEDRAL>
1.78657

>  <SCORE.INTRA.DIHEDRAL.0>
8.34559

>  <SCORE.INTRA.POLAR>
0

>  <SCORE.INTRA.POLAR.0>
0

>  <SCORE.INTRA.REPUL>
0

>  <SCORE.INTRA.REPUL.0>
0

>  <SCORE.INTRA.SOLV>
-0.814946

>  <SCORE.INTRA.SOLV.lig_0>
-48.829

>  <SCORE.INTRA.VDW>
0.258439

>  <SCORE.INTRA.VDW.0>
-1.77092

>  <SCORE.INTRA.norm>
0.0275649

>  <SCORE.RESTR>
0

>  <SCORE.RESTR.CAVITY>
0

>  <SCORE.RESTR.norm>
0

>  <SCORE.SYSTEM>
0

>  <SCORE.SYSTEM.CONST>
0

>  <SCORE.SYSTEM.DIHEDRAL>
0

>  <SCORE.SYSTEM.SOLV>
0

>  <SCORE.SYSTEM.norm>
0

>  <SCORE.heavy>
27

>  <SCORE.norm>
-0.458626

>  <RMSD>
1.652

$$$$
ligand
 OpenBabel11021811503D
libRbt.so/2013.1/901 2013/11/27
 27 29  0  0  0  0  0  0  0  0999 V2000
   47.9570  -23.4898 -103.4545 N   0  0  0  0  0  0  0  0  0  0  0  0
   48.0189  -24.9423 -103.6524 C   0  0  2  0  0  0  0  0  0  0  0  0
   46.6879  -25.4379 -104.1775 C   0  0  0  0  0  0  0  0  0  0  0  0
   45.7539  -25.6191 -103.4110 O   0  0  0  0  0  0  0  0  0  0  0  0
   48.3371  -25.6721 -102.3403 C   0  0  0  0  0  0  0  0  0  0  0  0
   48.7832  -27.1021 -102.6107 C   0  0  0  0  0  0  0  0  0  0  0  0
   50.4496  -27.2112 -103.3688 S   0  0  2  0  0  0  0  0  0  0  0  0
   50.1542  -26.8573 -105.1315 C   0  0  0  0  0  0  0  0  0  0  0  0
   50.4934  -29.0004 -103.4439 C   0  0  0  0  0  0  0  0  0  0  0  0
   50.9191  -29.6507 -102.1544 C   0  0  1  0  0  0  0  0  0  0  0  0
   49.9644  -29.2898 -101.1420 O   0  0  0  0  0  0  0  0  0  0  0  0
   50.7145  -31.0856 -102.4315 C   0  0  1  0  0  0  0  0  0  0  0  0
   51.9534  -31.6814 -102.8130 O   0  0  0  0  0  0  0  0  0  0  0  0
   50.2825  -31.6135 -101.0985 C   0  0  1  0  0  0  0  0  0  0  0  0
   51.4321  -31.9753 -100.3055 O   0  0  0  0  0  0  0  0  0  0  0  0
   49.5071  -30.4526 -100.4064 C   0  0  2  0  0  0  0  0  0  0  0  0
   46.5277  -25.6278 -105.3705 O   0  0  0  0  0  0  0  0  0  0  0  0
   45.1192  -31.9173 -103.0139 N   0  0  0  0  0  0  0  0  0  0  0  0
   46.4071  -32.1673 -103.3554 C   0  0  0  0  0  0  0  0  0  0  0  0
   47.4371  -31.7724 -102.5782 N   0  0  0  0  0  0  0  0  0  0  0  0
   47.2203  -31.0355 -101.4765 C   0  0  0  0  0  0  0  0  0  0  0  0
   45.8664  -30.7106 -101.0973 C   0  0  0  0  0  0  0  0  0  0  0  0
   44.8046  -31.1954 -101.9176 C   0  0  0  0  0  0  0  0  0  0  0  0
   43.4861  -30.9301 -101.6079 N   0  0  0  0  0  0  0  0  0  0  0  0
   45.9307  -29.9744  -99.9817 N   0  0  0  0  0  0  0  0  0  0  0  0
   47.1780  -29.8137  -99.6533 C   0  0  0  0  0  0  0  0  0  0  0  0
   48.0204  -30.4517 -100.5336 N   0  0  0  0  0  0  0  0  0  0  0  0
  2  1  1  1  0  0  0
  2  3  1  0  0  0  0
  2  5  1  0  0  0  0
  3  4  1  0  0  0  0
  3 17  1  0  0  0  0
  5  6  1  0  0  0  0
  7  6  1  1  0  0  0
  7  8  1  0  0  0  0
  7  9  1  0  0  0  0
 10  9  1  6  0  0  0
 10 11  1  0  0  0  0
 10 12  1  0  0  0  0
 11 16  1  0  0  0  0
 12 13  1  1  0  0  0
 12 14  1  0  0  0  0
 14 15  1  1  0  0  0
 14 16  1  0  0  0  0
 16 27  1  6  0  0  0
 18 19  2  0  0  0  0
 18 23  1  0  0  0  0
 19 20  1  0  0  0  0
 20 21  2  0  0  0  0
 21 22  1  0  0  0  0
 21 27  1  0  0  0  0
 22 23  2  0  0  0  0
 22 25  1  0  0  0  0
 23 24  1  0  0  0  0
 25 26  2  0  0  0  0
 26 27  1  0  0  0  0
M  END
>  <CHROM.1>
-80.26258602,-164.02373830,71.14848899,-80.08208263,-82.98840524,61.18148037
90.27584851,48.29648578,-28.99973397,-102.39548062,1.61559025,0.02507689
-0.39553131

>  <Name>
ligand

>  <RI>
0

>  <Rbt.Current_Directory>
/home/itssahil/PROJECTS/Mol_Feturizer/New_Systems/rnas/4L81

>  <Rbt.Executable>
rbdock ($Id: //depot/dev/client3/rdock/2013.1/src/exe/rbdock.cxx#4 $)

>  <Rbt.Library>
libRbt.so (2013.1, Build901 2013/11/27)

>  <Rbt.Parameter_File>
/export/apps/rDock/src/rDock_2013.1_src/data/scripts/dock_solv.prm

>  <Rbt.Receptor>
prm/pocket_docking_3.prm

>  <SCORE>
-20.2427

>  <SCORE.INTER>
-17.3108

>  <SCORE.INTER.CONST>
1

>  <SCORE.INTER.POLAR>
0

>  <SCORE.INTER.ROT>
7

>  <SCORE.INTER.SOLV>
16.744

>  <SCORE.INTER.VDW>
-25.3886

>  <SCORE.INTER.norm>
-0.641142

>  <SCORE.INTRA>
-2.93187

>  <SCORE.INTRA.DIHEDRAL>
-2.71076

>  <SCORE.INTRA.DIHEDRAL.0>
8.34559

>  <SCORE.INTRA.POLAR>
0

>  <SCORE.INTRA.POLAR.0>
0

>  <SCORE.INTRA.REPUL>
0

>  <SCORE.INTRA.REPUL.0>
0

>  <SCORE.INTRA.SOLV>
-0.689337

>  <SCORE.INTRA.SOLV.lig_0>
-48.829

>  <SCORE.INTRA.VDW>
-1.23182

>  <SCORE.INTRA.VDW.0>
-1.77092

>  <SCORE.INTRA.norm>
-0.108588

>  <SCORE.RESTR>
0

>  <SCORE.RESTR.CAVITY>
0

>  <SCORE.RESTR.norm>
0

>  <SCORE.SYSTEM>
0

>  <SCORE.SYSTEM.CONST>
0

>  <SCORE.SYSTEM.DIHEDRAL>
0

>  <SCORE.SYSTEM.SOLV>
0

>  <SCORE.SYSTEM.norm>
0

>  <SCORE.heavy>
27

>  <SCORE.norm>
-0.74973

>  <RMSD>
1.667

$$$$
ligand
 OpenBabel11021811503D
libRbt.so/2013.1/901 2013/11/27
 27 29  0  0  0  0  0  0  0  0999 V2000
   47.7960  -23.3733 -103.5459 N   0  0  0  0  0  0  0  0  0  0  0  0
   48.0764  -24.8019 -103.7282 C   0  0  2  0  0  0  0  0  0  0  0  0
   46.9018  -25.4634 -104.4177 C   0  0  0  0  0  0  0  0  0  0  0  0
   47.0373  -25.9517 -105.5294 O   0  0  0  0  0  0  0  0  0  0  0  0
   48.3192  -25.5000 -102.3831 C   0  0  0  0  0  0  0  0  0  0  0  0
   48.7636  -26.9405 -102.5933 C   0  0  0  0  0  0  0  0  0  0  0  0
   50.4591  -27.0844 -103.2772 S   0  0  2  0  0  0  0  0  0  0  0  0
   50.2551  -26.6888 -105.0439 C   0  0  0  0  0  0  0  0  0  0  0  0
   50.4552  -28.8724 -103.3863 C   0  0  0  0  0  0  0  0  0  0  0  0
   50.8754  -29.5580 -102.1134 C   0  0  1  0  0  0  0  0  0  0  0  0
   49.9156  -29.2259 -101.0958 O   0  0  0  0  0  0  0  0  0  0  0  0
   50.6732  -30.9848 -102.4311 C   0  0  1  0  0  0  0  0  0  0  0  0
   51.9143  -31.5689 -102.8232 O   0  0  0  0  0  0  0  0  0  0  0  0
   50.2353  -31.5497 -101.1154 C   0  0  1  0  0  0  0  0  0  0  0  0
   51.3814  -31.9327 -100.3272 O   0  0  0  0  0  0  0  0  0  0  0  0
   49.4557  -30.4089 -100.3950 C   0  0  2  0  0  0  0  0  0  0  0  0
   45.8228  -25.5434 -103.8572 O   0  0  0  0  0  0  0  0  0  0  0  0
   45.0701  -31.9795 -102.9441 N   0  0  0  0  0  0  0  0  0  0  0  0
   46.3579  -32.2548 -103.2661 C   0  0  0  0  0  0  0  0  0  0  0  0
   47.3870  -31.8265 -102.5054 N   0  0  0  0  0  0  0  0  0  0  0  0
   47.1701  -31.0323 -101.4444 C   0  0  0  0  0  0  0  0  0  0  0  0
   45.8166  -30.6799 -101.0890 C   0  0  0  0  0  0  0  0  0  0  0  0
   44.7553  -31.1998 -101.8882 C   0  0  0  0  0  0  0  0  0  0  0  0
   43.4372  -30.9107 -101.5989 N   0  0  0  0  0  0  0  0  0  0  0  0
   45.8806  -29.8873 -100.0126 N   0  0  0  0  0  0  0  0  0  0  0  0
   47.1275  -29.7175  -99.6871 C   0  0  0  0  0  0  0  0  0  0  0  0
   47.9697  -30.4055 -100.5292 N   0  0  0  0  0  0  0  0  0  0  0  0
  2  1  1  1  0  0  0
  2  3  1  0  0  0  0
  2  5  1  0  0  0  0
  3  4  1  0  0  0  0
  3 17  1  0  0  0  0
  5  6  1  0  0  0  0
  7  6  1  1  0  0  0
  7  8  1  0  0  0  0
  7  9  1  0  0  0  0
 10  9  1  6  0  0  0
 10 11  1  0  0  0  0
 10 12  1  0  0  0  0
 11 16  1  0  0  0  0
 12 13  1  1  0  0  0
 12 14  1  0  0  0  0
 14 15  1  1  0  0  0
 14 16  1  0  0  0  0
 16 27  1  6  0  0  0
 18 19  2  0  0  0  0
 18 23  1  0  0  0  0
 19 20  1  0  0  0  0
 20 21  2  0  0  0  0
 21 22  1  0  0  0  0
 21 27  1  0  0  0  0
 22 23  2  0  0  0  0
 22 25  1  0  0  0  0
 23 24  1  0  0  0  0
 25 26  2  0  0  0  0
 26 27  1  0  0  0  0
M  END
>  <CHROM.1>
115.87674433,-173.55302840,70.56852717,-77.05562836,-86.13606485,62.99050904
94.85037496,48.29647652,-28.94684479,-102.41129990,1.52572340,0.00833446
-0.40611176

>  <Name>
ligand

>  <RI>
0

>  <Rbt.Current_Directory>
/home/itssahil/PROJECTS/Mol_Feturizer/New_Systems/rnas/4L81

>  <Rbt.Executable>
rbdock ($Id: //depot/dev/client3/rdock/2013.1/src/exe/rbdock.cxx#4 $)

>  <Rbt.Library>
libRbt.so (2013.1, Build901 2013/11/27)

>  <Rbt.Parameter_File>
/export/apps/rDock/src/rDock_2013.1_src/data/scripts/dock_solv.prm

>  <Rbt.Receptor>
prm/pocket_docking_5.prm

>  <SCORE>
-20.5034

>  <SCORE.INTER>
-17.1307

>  <SCORE.INTER.CONST>
1

>  <SCORE.INTER.POLAR>
0

>  <SCORE.INTER.ROT>
7

>  <SCORE.INTER.SOLV>
16.9108

>  <SCORE.INTER.VDW>
-25.3241

>  <SCORE.INTER.norm>
-0.63447

>  <SCORE.INTRA>
-3.37273

>  <SCORE.INTRA.DIHEDRAL>
-3.31045

>  <SCORE.INTRA.DIHEDRAL.0>
8.34559

>  <SCORE.INTRA.POLAR>
0

>  <SCORE.INTRA.POLAR.0>
0

>  <SCORE.INTRA.REPUL>
0

>  <SCORE.INTRA.REPUL.0>
0

>  <SCORE.INTRA.SOLV>
-0.835526

>  <SCORE.INTRA.SOLV.lig_0>
-48.829

>  <SCORE.INTRA.VDW>
-1.29975

>  <SCORE.INTRA.VDW.0>
-1.77092

>  <SCORE.INTRA.norm>
-0.124916

>  <SCORE.RESTR>
0

>  <SCORE.RESTR.CAVITY>
0

>  <SCORE.RESTR.norm>
0

>  <SCORE.SYSTEM>
0

>  <SCORE.SYSTEM.CONST>
0

>  <SCORE.SYSTEM.DIHEDRAL>
0

>  <SCORE.SYSTEM.SOLV>
0

>  <SCORE.SYSTEM.norm>
0

>  <SCORE.heavy>
27

>  <SCORE.norm>
-0.759386

>  <RMSD>
1.678

$$$$
ligand
 OpenBabel11021811503D
libRbt.so/2013.1/901 2013/11/27
 27 29  0  0  0  0  0  0  0  0999 V2000
   47.8495  -23.1475 -103.5684 N   0  0  0  0  0  0  0  0  0  0  0  0
   48.0739  -24.5894 -103.7213 C   0  0  2  0  0  0  0  0  0  0  0  0
   46.8656  -25.2218 -104.3791 C   0  0  0  0  0  0  0  0  0  0  0  0
   45.8593  -25.4507 -103.7250 O   0  0  0  0  0  0  0  0  0  0  0  0
   48.3102  -25.2653 -102.3638 C   0  0  0  0  0  0  0  0  0  0  0  0
   48.6834  -26.7297 -102.5460 C   0  0  0  0  0  0  0  0  0  0  0  0
   50.3687  -26.9696 -103.2283 S   0  0  2  0  0  0  0  0  0  0  0  0
   50.1779  -26.6137 -105.0050 C   0  0  0  0  0  0  0  0  0  0  0  0
   50.2830  -28.7578 -103.2881 C   0  0  0  0  0  0  0  0  0  0  0  0
   50.6683  -29.4264 -101.9953 C   0  0  1  0  0  0  0  0  0  0  0  0
   49.6560  -29.1203 -101.0214 O   0  0  0  0  0  0  0  0  0  0  0  0
   50.5228  -30.8597 -102.3151 C   0  0  1  0  0  0  0  0  0  0  0  0
   51.7967  -31.4073 -102.6509 O   0  0  0  0  0  0  0  0  0  0  0  0
   50.0458  -31.4334 -101.0169 C   0  0  1  0  0  0  0  0  0  0  0  0
   51.1679  -31.7792 -100.1785 O   0  0  0  0  0  0  0  0  0  0  0  0
   49.2020  -30.3144 -100.3358 C   0  0  2  0  0  0  0  0  0  0  0  0
   46.8748  -25.4766 -105.5707 O   0  0  0  0  0  0  0  0  0  0  0  0
   44.9844  -31.9511 -103.1162 N   0  0  0  0  0  0  0  0  0  0  0  0
   46.2933  -32.1736 -103.3902 C   0  0  0  0  0  0  0  0  0  0  0  0
   47.2741  -31.7348 -102.5738 N   0  0  0  0  0  0  0  0  0  0  0  0
   46.9854  -30.9810 -101.5005 C   0  0  0  0  0  0  0  0  0  0  0  0
   45.6068  -30.6847 -101.1936 C   0  0  0  0  0  0  0  0  0  0  0  0
   44.5987  -31.2150 -102.0525 C   0  0  0  0  0  0  0  0  0  0  0  0
   43.2604  -30.9788 -101.8121 N   0  0  0  0  0  0  0  0  0  0  0  0
   45.5982  -29.9237 -100.0928 N   0  0  0  0  0  0  0  0  0  0  0  0
   46.8236  -29.7226  -99.7091 C   0  0  0  0  0  0  0  0  0  0  0  0
   47.7237  -30.3562 -100.5337 N   0  0  0  0  0  0  0  0  0  0  0  0
  2  1  1  1  0  0  0
  2  3  1  0  0  0  0
  2  5  1  0  0  0  0
  3  4  1  0  0  0  0
  3 17  1  0  0  0  0
  5  6  1  0  0  0  0
  7  6  1  1  0  0  0
  7  8  1  0  0  0  0
  7  9  1  0  0  0  0
 10  9  1  6  0  0  0
 10 11  1  0  0  0  0
 10 12  1  0  0  0  0
 11 16  1  0  0  0  0
 12 13  1  1  0  0  0
 12 14  1  0  0  0  0
 14 15  1  1  0  0  0
 14 16  1  0  0  0  0
 16 27  1  6  0  0  0
 18 19  2  0  0  0  0
 18 23  1  0  0  0  0
 19 20  1  0  0  0  0
 20 21  2  0  0  0  0
 21 22  1  0  0  0  0
 21 27  1  0  0  0  0
 22 23  2  0  0  0  0
 22 25  1  0  0  0  0
 23 24  1  0  0  0  0
 25 26  2  0  0  0  0
 26 27  1  0  0  0  0
M  END
>  <CHROM.1>
-78.28197173,-174.14482465,71.61816610,-77.54419489,-85.84018404,68.09859728
92.91181628,48.16061433,-28.83002262,-102.40006720,1.47273345,-0.03675717
-0.39420838

>  <Name>
ligand

>  <RI>
0

>  <Rbt.Current_Directory>
/home/itssahil/PROJECTS/Mol_Feturizer/New_Systems/rnas/4L81

>  <Rbt.Executable>
rbdock ($Id: //depot/dev/client3/rdock/2013.1/src/exe/rbdock.cxx#4 $)

>  <Rbt.Library>
libRbt.so (2013.1, Build901 2013/11/27)

>  <Rbt.Parameter_File>
/export/apps/rDock/src/rDock_2013.1_src/data/scripts/dock_solv.prm

>  <Rbt.Receptor>
prm/pocket_docking_6.prm

>  <SCORE>
-20.796

>  <SCORE.INTER>
-17.7322

>  <SCORE.INTER.CONST>
1

>  <SCORE.INTER.POLAR>
0

>  <SCORE.INTER.ROT>
7

>  <SCORE.INTER.SOLV>
16.8453

>  <SCORE.INTER.VDW>
-25.7032

>  <SCORE.INTER.norm>
-0.656749

>  <SCORE.INTRA>
-3.06382

>  <SCORE.INTRA.DIHEDRAL>
-3.13813

>  <SCORE.INTRA.DIHEDRAL.0>
8.34559

>  <SCORE.INTRA.POLAR>
0

>  <SCORE.INTRA.POLAR.0>
0

>  <SCORE.INTRA.REPUL>
0

>  <SCORE.INTRA.REPUL.0>
0

>  <SCORE.INTRA.SOLV>
-0.866761

>  <SCORE.INTRA.SOLV.lig_0>
-48.829

>  <SCORE.INTRA.VDW>
-1.06137

>  <SCORE.INTRA.VDW.0>
-1.77092

>  <SCORE.INTRA.norm>
-0.113475

>  <SCORE.RESTR>
0

>  <SCORE.RESTR.CAVITY>
0

>  <SCORE.RESTR.norm>
0

>  <SCORE.SYSTEM>
0

>  <SCORE.SYSTEM.CONST>
0

>  <SCORE.SYSTEM.DIHEDRAL>
0

>  <SCORE.SYSTEM.SOLV>
0

>  <SCORE.SYSTEM.norm>
0

>  <SCORE.heavy>
27

>  <SCORE.norm>
-0.770224

>  <RMSD>
1.680

$$$$
ligand
 OpenBabel11021811503D
libRbt.so/2013.1/901 2013/11/27
 27 29  0  0  0  0  0  0  0  0999 V2000
   47.8692  -23.1195 -103.5842 N   0  0  0  0  0  0  0  0  0  0  0  0
   48.1378  -24.5524 -103.7496 C   0  0  2  0  0  0  0  0  0  0  0  0
   46.9721  -25.2062 -104.4613 C   0  0  0  0  0  0  0  0  0  0  0  0
   47.0902  -25.5804 -105.6183 O   0  0  0  0  0  0  0  0  0  0  0  0
   48.3418  -25.2429 -102.3942 C   0  0  0  0  0  0  0  0  0  0  0  0
   48.7021  -26.7097 -102.5828 C   0  0  0  0  0  0  0  0  0  0  0  0
   50.3867  -26.9615 -103.2625 S   0  0  2  0  0  0  0  0  0  0  0  0
   50.1992  -26.6129 -105.0410 C   0  0  0  0  0  0  0  0  0  0  0  0
   50.2918  -28.7495 -103.3141 C   0  0  0  0  0  0  0  0  0  0  0  0
   50.6935  -29.4150 -102.0247 C   0  0  1  0  0  0  0  0  0  0  0  0
   49.6865  -29.1182 -101.0425 O   0  0  0  0  0  0  0  0  0  0  0  0
   50.5582  -30.8494 -102.3438 C   0  0  1  0  0  0  0  0  0  0  0  0
   51.8342  -31.3856 -102.6901 O   0  0  0  0  0  0  0  0  0  0  0  0
   50.0969  -31.4277 -101.0419 C   0  0  1  0  0  0  0  0  0  0  0  0
   51.2288  -31.7637 -100.2128 O   0  0  0  0  0  0  0  0  0  0  0  0
   49.2488  -30.3165 -100.3536 C   0  0  2  0  0  0  0  0  0  0  0  0
   45.9195  -25.3941 -103.8768 O   0  0  0  0  0  0  0  0  0  0  0  0
   45.0216  -32.0257 -103.0753 N   0  0  0  0  0  0  0  0  0  0  0  0
   46.3300  -32.2436 -103.3558 C   0  0  0  0  0  0  0  0  0  0  0  0
   47.3138  -31.7853 -102.5539 N   0  0  0  0  0  0  0  0  0  0  0  0
   47.0281  -31.0165 -101.4905 C   0  0  0  0  0  0  0  0  0  0  0  0
   45.6498  -30.7247 -101.1779 C   0  0  0  0  0  0  0  0  0  0  0  0
   44.6389  -31.2754 -102.0206 C   0  0  0  0  0  0  0  0  0  0  0  0
   43.3009  -31.0444 -101.7736 N   0  0  0  0  0  0  0  0  0  0  0  0
   45.6442  -29.9464 -100.0893 N   0  0  0  0  0  0  0  0  0  0  0  0
   46.8711  -29.7309  -99.7182 C   0  0  0  0  0  0  0  0  0  0  0  0
   47.7694  -30.3714 -100.5395 N   0  0  0  0  0  0  0  0  0  0  0  0
  2  1  1  1  0  0  0
  2  3  1  0  0  0  0
  2  5  1  0  0  0  0
  3  4  1  0  0  0  0
  3 17  1  0  0  0  0
  5  6  1  0  0  0  0
  7  6  1  1  0  0  0
  7  8  1  0  0  0  0
  7  9  1  0  0  0  0
 10  9  1  6  0  0  0
 10 11  1  0  0  0  0
 10 12  1  0  0  0  0
 11 16  1  0  0  0  0
 12 13  1  1  0  0  0
 12 14  1  0  0  0  0
 14 15  1  1  0  0  0
 14 16  1  0  0  0  0
 16 27  1  6  0  0  0
 18 19  2  0  0  0  0
 18 23  1  0  0  0  0
 19 20  1  0  0  0  0
 20 21  2  0  0  0  0
 21 22  1  0  0  0  0
 21 27  1  0  0  0  0
 22 23  2  0  0  0  0
 22 25  1  0  0  0  0
 23 24  1  0  0  0  0
 25 26  2  0  0  0  0
 26 27  1  0  0  0  0
M  END
>  <CHROM.1>
108.29426825,-176.58855624,70.66517284,-78.14094559,-86.75889252,69.00805471
93.84744675,48.20696649,-28.83904439,-102.42104096,1.45303430,-0.03271989
-0.39811367

>  <Name>
ligand

>  <RI>
0

>  <Rbt.Current_Directory>
/home/itssahil/PROJECTS/Mol_Feturizer/New_Systems/rnas/4L81

>  <Rbt.Executable>
rbdock ($Id: //depot/dev/client3/rdock/2013.1/src/exe/rbdock.cxx#4 $)

>  <Rbt.Library>
libRbt.so (2013.1, Build901 2013/11/27)

>  <Rbt.Parameter_File>
/export/apps/rDock/src/rDock_2013.1_src/data/scripts/dock_solv.prm

>  <Rbt.Receptor>
prm/pocket_docking_7.prm

>  <SCORE>
-20.6335

>  <SCORE.INTER>
-17.5637

>  <SCORE.INTER.CONST>
1

>  <SCORE.INTER.POLAR>
0

>  <SCORE.INTER.ROT>
7

>  <SCORE.INTER.SOLV>
16.6708

>  <SCORE.INTER.VDW>
-25.5327

>  <SCORE.INTER.norm>
-0.650506

>  <SCORE.INTRA>
-3.06981

>  <SCORE.INTRA.DIHEDRAL>
-3.03164

>  <SCORE.INTRA.DIHEDRAL.0>
8.34559

>  <SCORE.INTRA.POLAR>
0

>  <SCORE.INTRA.POLAR.0>
0

>  <SCORE.INTRA.REPUL>
0

>  <SCORE.INTRA.REPUL.0>
0

>  <SCORE.INTRA.SOLV>
-0.918834

>  <SCORE.INTRA.SOLV.lig_0>
-48.829

>  <SCORE.INTRA.VDW>
-1.09457

>  <SCORE.INTRA.VDW.0>
-1.77092

>  <SCORE.INTRA.norm>
-0.113697

>  <SCORE.RESTR>
0

>  <SCORE.RESTR.CAVITY>
0

>  <SCORE.RESTR.norm>
0

>  <SCORE.SYSTEM>
0

>  <SCORE.SYSTEM.CONST>
0

>  <SCORE.SYSTEM.DIHEDRAL>
0

>  <SCORE.SYSTEM.SOLV>
0

>  <SCORE.SYSTEM.norm>
0

>  <SCORE.heavy>
27

>  <SCORE.norm>
-0.764202

>  <RMSD>
1.713

$$$$
ligand
 OpenBabel11021811503D
libRbt.so/2013.1/901 2013/11/27
 27 29  0  0  0  0  0  0  0  0999 V2000
   46.2862  -24.3996 -105.8690 N   0  0  0  0  0  0  0  0  0  0  0  0
   46.8921  -25.5796 -105.2420 C   0  0  2  0  0  0  0  0  0  0  0  0
   46.7290  -25.4930 -103.7391 C   0  0  0  0  0  0  0  0  0  0  0  0
   47.2002  -24.5488 -103.1233 O   0  0  0  0  0  0  0  0  0  0  0  0
   48.3870  -25.6832 -105.5734 C   0  0  0  0  0  0  0  0  0  0  0  0
   48.9331  -27.0512 -105.1898 C   0  0  0  0  0  0  0  0  0  0  0  0
   49.2115  -27.2419 -103.3871 S   0  0  2  0  0  0  0  0  0  0  0  0
   50.6823  -26.2177 -103.0593 C   0  0  0  0  0  0  0  0  0  0  0  0
   50.0033  -28.8448 -103.4985 C   0  0  0  0  0  0  0  0  0  0  0  0
   50.4891  -29.3739 -102.1753 C   0  0  1  0  0  0  0  0  0  0  0  0
   49.5163  -29.0238 -101.1762 O   0  0  0  0  0  0  0  0  0  0  0  0
   50.3968  -30.8355 -102.3565 C   0  0  1  0  0  0  0  0  0  0  0  0
   51.6762  -31.3556 -102.7145 O   0  0  0  0  0  0  0  0  0  0  0  0
   50.0182  -31.3074 -100.9868 C   0  0  1  0  0  0  0  0  0  0  0  0
   51.1989  -31.5251 -100.1867 O   0  0  0  0  0  0  0  0  0  0  0  0
   49.1583  -30.1684 -100.3613 C   0  0  2  0  0  0  0  0  0  0  0  0
   46.0994  -26.3450 -103.1370 O   0  0  0  0  0  0  0  0  0  0  0  0
   44.8697  -31.8336 -103.0132 N   0  0  0  0  0  0  0  0  0  0  0  0
   46.1680  -31.9411 -103.3883 C   0  0  0  0  0  0  0  0  0  0  0  0
   47.1733  -31.5112 -102.5973 N   0  0  0  0  0  0  0  0  0  0  0  0
   46.9127  -30.8776 -101.4422 C   0  0  0  0  0  0  0  0  0  0  0  0
   45.5427  -30.7044 -101.0233 C   0  0  0  0  0  0  0  0  0  0  0  0
   44.5129  -31.2233 -101.8633 C   0  0  0  0  0  0  0  0  0  0  0  0
   43.1821  -31.1011 -101.5185 N   0  0  0  0  0  0  0  0  0  0  0  0
   45.5623  -30.0471  -99.8578 N   0  0  0  0  0  0  0  0  0  0  0  0
   46.7964  -29.7981  -99.5344 C   0  0  0  0  0  0  0  0  0  0  0  0
   47.6754  -30.2928 -100.4694 N   0  0  0  0  0  0  0  0  0  0  0  0
  2  1  1  6  0  0  0
  2  3  1  0  0  0  0
  2  5  1  0  0  0  0
  3  4  1  0  0  0  0
  3 17  1  0  0  0  0
  5  6  1  0  0  0  0
  7  6  1  6  0  0  0
  7  8  1  0  0  0  0
  7  9  1  0  0  0  0
 10  9  1  6  0  0  0
 10 11  1  0  0  0  0
 10 12  1  0  0  0  0
 11 16  1  0  0  0  0
 12 13  1  1  0  0  0
 12 14  1  0  0  0  0
 14 15  1  1  0  0  0
 14 16  1  0  0  0  0
 16 27  1  6  0  0  0
 18 19  2  0  0  0  0
 18 23  1  0  0  0  0
 19 20  1  0  0  0  0
 20 21  2  0  0  0  0
 21 22  1  0  0  0  0
 21 27  1  0  0  0  0
 22 23  2  0  0  0  0
 22 25  1  0  0  0  0
 23 24  1  0  0  0  0
 25 26  2  0  0  0  0
 26 27  1  0  0  0  0
M  END
>  <CHROM.1>
-59.40686366,-167.30989164,-76.66070864,-72.65866754,176.80061503,38.31159213
82.37074161,47.96309356,-28.91078463,-102.51933006,1.53838301,-0.01896286
-0.52767391

>  <Name>
ligand

>  <RI>
0

>  <Rbt.Current_Directory>
/home/itssahil/PROJECTS/Mol_Feturizer/New_Systems/rnas/4L81

>  <Rbt.Executable>
rbdock ($Id: //depot/dev/client3/rdock/2013.1/src/exe/rbdock.cxx#4 $)

>  <Rbt.Library>
libRbt.so (2013.1, Build901 2013/11/27)

>  <Rbt.Parameter_File>
/export/apps/rDock/src/rDock_2013.1_src/data/scripts/dock_solv.prm

>  <Rbt.Receptor>
prm/pocket_docking_3.prm

>  <SCORE>
-18.0892

>  <SCORE.INTER>
-15.0527

>  <SCORE.INTER.CONST>
1

>  <SCORE.INTER.POLAR>
0

>  <SCORE.INTER.ROT>
7

>  <SCORE.INTER.SOLV>
17.3187

>  <SCORE.INTER.VDW>
-24.0747

>  <SCORE.INTER.norm>
-0.557507

>  <SCORE.INTRA>
-3.03655

>  <SCORE.INTRA.DIHEDRAL>
-1.99915

>  <SCORE.INTRA.DIHEDRAL.0>
8.34559

>  <SCORE.INTRA.POLAR>
0

>  <SCORE.INTRA.POLAR.0>
0

>  <SCORE.INTRA.REPUL>
0

>  <SCORE.INTRA.REPUL.0>
0

>  <SCORE.INTRA.SOLV>
-1.09012

>  <SCORE.INTRA.SOLV.lig_0>
-48.829

>  <SCORE.INTRA.VDW>
-1.49192

>  <SCORE.INTRA.VDW.0>
-1.77092

>  <SCORE.INTRA.norm>
-0.112465

>  <SCORE.RESTR>
0

>  <SCORE.RESTR.CAVITY>
0

>  <SCORE.RESTR.norm>
0

>  <SCORE.SYSTEM>
0

>  <SCORE.SYSTEM.CONST>
0

>  <SCORE.SYSTEM.DIHEDRAL>
0

>  <SCORE.SYSTEM.SOLV>
0

>  <SCORE.SYSTEM.norm>
0

>  <SCORE.heavy>
27

>  <SCORE.norm>
-0.669972

>  <RMSD>
1.755

$$$$
ligand
 OpenBabel11021811503D
libRbt.so/2013.1/901 2013/11/27
 27 29  0  0  0  0  0  0  0  0999 V2000
   45.6869  -27.1551 -103.0933 N   0  0  0  0  0  0  0  0  0  0  0  0
   45.7784  -26.3058 -104.2862 C   0  0  2  0  0  0  0  0  0  0  0  0
   44.5264  -26.4714 -105.1216 C   0  0  0  0  0  0  0  0  0  0  0  0
   43.9039  -27.5223 -105.0940 O   0  0  0  0  0  0  0  0  0  0  0  0
   46.9980  -26.6737 -105.1421 C   0  0  0  0  0  0  0  0  0  0  0  0
   48.2015  -25.8220 -104.7638 C   0  0  0  0  0  0  0  0  0  0  0  0
   48.8325  -26.1661 -103.0766 S   0  0  2  0  0  0  0  0  0  0  0  0
   50.4861  -25.4013 -103.0617 C   0  0  0  0  0  0  0  0  0  0  0  0
   49.3086  -27.8609 -103.4075 C   0  0  0  0  0  0  0  0  0  0  0  0
   49.7374  -28.6204 -102.1803 C   0  0  1  0  0  0  0  0  0  0  0  0
   48.5571  -28.9397 -101.4241 O   0  0  0  0  0  0  0  0  0  0  0  0
   50.2323  -29.8921 -102.7419 C   0  0  1  0  0  0  0  0  0  0  0  0
   51.6530  -29.8418 -102.8627 O   0  0  0  0  0  0  0  0  0  0  0  0
   49.8435  -30.8832 -101.6890 C   0  0  1  0  0  0  0  0  0  0  0  0
   50.8736  -30.9771 -100.6833 O   0  0  0  0  0  0  0  0  0  0  0  0
   48.5296  -30.3405 -101.0511 C   0  0  2  0  0  0  0  0  0  0  0  0
   44.1119  -25.5487 -105.8011 O   0  0  0  0  0  0  0  0  0  0  0  0
   43.2258  -30.1749 -101.2523 N   0  0  0  0  0  0  0  0  0  0  0  0
   44.0500  -29.4038 -100.5013 C   0  0  0  0  0  0  0  0  0  0  0  0
   45.3925  -29.5192 -100.5746 N   0  0  0  0  0  0  0  0  0  0  0  0
   45.9574  -30.4708 -101.3354 C   0  0  0  0  0  0  0  0  0  0  0  0
   45.1160  -31.3415 -102.1205 C   0  0  0  0  0  0  0  0  0  0  0  0
   43.7040  -31.1485 -102.0557 C   0  0  0  0  0  0  0  0  0  0  0  0
   42.8418  -31.9392 -102.7879 N   0  0  0  0  0  0  0  0  0  0  0  0
   45.9193  -32.1900 -102.7730 N   0  0  0  0  0  0  0  0  0  0  0  0
   47.1532  -31.9295 -102.4583 C   0  0  0  0  0  0  0  0  0  0  0  0
   47.2408  -30.8740 -101.5808 N   0  0  0  0  0  0  0  0  0  0  0  0
  2  1  1  1  0  0  0
  2  3  1  0  0  0  0
  2  5  1  0  0  0  0
  3  4  1  0  0  0  0
  3 17  1  0  0  0  0
  5  6  1  0  0  0  0
  7  6  1  6  0  0  0
  7  8  1  0  0  0  0
  7  9  1  0  0  0  0
 10  9  1  6  0  0  0
 10 11  1  0  0  0  0
 10 12  1  0  0  0  0
 11 16  1  0  0  0  0
 12 13  1  1  0  0  0
 12 14  1  0  0  0  0
 14 15  1  1  0  0  0
 14 16  1  0  0  0  0
 16 27  1  6  0  0  0
 18 19  2  0  0  0  0
 18 23  1  0  0  0  0
 19 20  1  0  0  0  0
 20 21  2  0  0  0  0
 21 22  1  0  0  0  0
 21 27  1  0  0  0  0
 22 23  2  0  0  0  0
 22 25  1  0  0  0  0
 23 24  1  0  0  0  0
 25 26  2  0  0  0  0
 26 27  1  0  0  0  0
M  END
>  <CHROM.1>
-28.52691590,-92.74470976,66.99880349,164.56039884,-172.28533197,74.77705743
-57.71059567,47.10984740,-28.82566241,-102.74868237,2.96275358,0.14195456
2.62154204

>  <Name>
ligand

>  <RI>
0

>  <Rbt.Current_Directory>
/home/itssahil/PROJECTS/Mol_Feturizer/New_Systems/rnas/4L81

>  <Rbt.Executable>
rbdock ($Id: //depot/dev/client3/rdock/2013.1/src/exe/rbdock.cxx#4 $)

>  <Rbt.Library>
libRbt.so (2013.1, Build901 2013/11/27)

>  <Rbt.Parameter_File>
/export/apps/rDock/src/rDock_2013.1_src/data/scripts/dock_solv.prm

>  <Rbt.Receptor>
prm/pocket_docking_2.prm

>  <SCORE>
-11.2918

>  <SCORE.INTER>
-11.4552

>  <SCORE.INTER.CONST>
1

>  <SCORE.INTER.POLAR>
0

>  <SCORE.INTER.ROT>
7

>  <SCORE.INTER.SOLV>
20.2533

>  <SCORE.INTER.VDW>
-22.6546

>  <SCORE.INTER.norm>
-0.424268

>  <SCORE.INTRA>
0.123669

>  <SCORE.INTRA.DIHEDRAL>
0.0392698

>  <SCORE.INTRA.DIHEDRAL.0>
8.34559

>  <SCORE.INTRA.POLAR>
0

>  <SCORE.INTRA.POLAR.0>
0

>  <SCORE.INTRA.REPUL>
0.0979172

>  <SCORE.INTRA.REPUL.0>
0

>  <SCORE.INTRA.SOLV>
1.78517

>  <SCORE.INTRA.SOLV.lig_0>
-48.829

>  <SCORE.INTRA.VDW>
-1.27814

>  <SCORE.INTRA.VDW.0>
-1.77092

>  <SCORE.INTRA.norm>
0.00458033

>  <SCORE.RESTR>
0.0397269

>  <SCORE.RESTR.CAVITY>
0.0397269

>  <SCORE.RESTR.norm>
0.00147137

>  <SCORE.SYSTEM>
0

>  <SCORE.SYSTEM.CONST>
0

>  <SCORE.SYSTEM.DIHEDRAL>
0

>  <SCORE.SYSTEM.SOLV>
0

>  <SCORE.SYSTEM.norm>
0

>  <SCORE.heavy>
27

>  <SCORE.norm>
-0.418217

>  <RMSD>
1.791

$$$$
ligand
 OpenBabel11021811503D
libRbt.so/2013.1/901 2013/11/27
 27 29  0  0  0  0  0  0  0  0999 V2000
   46.3834  -26.8520 -106.7337 N   0  0  0  0  0  0  0  0  0  0  0  0
   45.8394  -25.8180 -105.8462 C   0  0  2  0  0  0  0  0  0  0  0  0
   46.1523  -24.4495 -106.4135 C   0  0  0  0  0  0  0  0  0  0  0  0
   47.1200  -24.2932 -107.1428 O   0  0  0  0  0  0  0  0  0  0  0  0
   46.4384  -25.9194 -104.4368 C   0  0  0  0  0  0  0  0  0  0  0  0
   47.9472  -25.7218 -104.4744 C   0  0  0  0  0  0  0  0  0  0  0  0
   48.7573  -26.0098 -102.8545 S   0  0  2  0  0  0  0  0  0  0  0  0
   50.4541  -25.3917 -103.0960 C   0  0  0  0  0  0  0  0  0  0  0  0
   49.0543  -27.7573 -103.1130 C   0  0  0  0  0  0  0  0  0  0  0  0
   49.5924  -28.4665 -101.8987 C   0  0  1  0  0  0  0  0  0  0  0  0
   48.5689  -28.4512 -100.8891 O   0  0  0  0  0  0  0  0  0  0  0  0
   49.7041  -29.8633 -102.3615 C   0  0  1  0  0  0  0  0  0  0  0  0
   51.0470  -30.1289 -102.7634 O   0  0  0  0  0  0  0  0  0  0  0  0
   49.3776  -30.6406 -101.1240 C   0  0  1  0  0  0  0  0  0  0  0  0
   50.5674  -30.8525 -100.3360 O   0  0  0  0  0  0  0  0  0  0  0  0
   48.3619  -29.7704 -100.3245 C   0  0  2  0  0  0  0  0  0  0  0  0
   45.4245  -23.5017 -106.1749 O   0  0  0  0  0  0  0  0  0  0  0  0
   44.4752  -32.1628 -103.0389 N   0  0  0  0  0  0  0  0  0  0  0  0
   45.8021  -32.1668 -103.3164 C   0  0  0  0  0  0  0  0  0  0  0  0
   46.6965  -31.5491 -102.5167 N   0  0  0  0  0  0  0  0  0  0  0  0
   46.2872  -30.8300 -101.4589 C   0  0  0  0  0  0  0  0  0  0  0  0
   44.8792  -30.7644 -101.1497 C   0  0  0  0  0  0  0  0  0  0  0  0
   43.9732  -31.4778 -101.9897 C   0  0  0  0  0  0  0  0  0  0  0  0
   42.6149  -31.4660 -101.7458 N   0  0  0  0  0  0  0  0  0  0  0  0
   44.7447  -29.9901 -100.0666 N   0  0  0  0  0  0  0  0  0  0  0  0
   45.9193  -29.5754  -99.6956 C   0  0  0  0  0  0  0  0  0  0  0  0
   46.9116  -30.0666 -100.5116 N   0  0  0  0  0  0  0  0  0  0  0  0
  2  1  1  6  0  0  0
  2  3  1  0  0  0  0
  2  5  1  0  0  0  0
  3  4  1  0  0  0  0
  3 17  1  0  0  0  0
  5  6  1  0  0  0  0
  7  6  1  6  0  0  0
  7  8  1  0  0  0  0
  7  9  1  0  0  0  0
 10  9  1  6  0  0  0
 10 11  1  0  0  0  0
 10 12  1  0  0  0  0
 11 16  1  0  0  0  0
 12 13  1  1  0  0  0
 12 14  1  0  0  0  0
 14 15  1  1  0  0  0
 14 16  1  0  0  0  0
 16 27  1  6  0  0  0
 18 19  2  0  0  0  0
 18 23  1  0  0  0  0
 19 20  1  0  0  0  0
 20 21  2  0  0  0  0
 21 22  1  0  0  0  0
 21 27  1  0  0  0  0
 22 23  2  0  0  0  0
 22 25  1  0  0  0  0
 23 24  1  0  0  0  0
 25 26  2  0  0  0  0
 26 27  1  0  0  0  0
M  END
>  <CHROM.1>
-25.98286642,61.11698186,-173.72586501,-169.05128935,-173.09600522,66.08223265
100.12382366,47.30286348,-28.46115636,-102.83619238,1.48429406,-0.29611465
-0.64459150

>  <Name>
ligand

>  <RI>
0

>  <Rbt.Current_Directory>
/home/itssahil/PROJECTS/Mol_Feturizer/New_Systems/rnas/4L81

>  <Rbt.Executable>
rbdock ($Id: //depot/dev/client3/rdock/2013.1/src/exe/rbdock.cxx#4 $)

>  <Rbt.Library>
libRbt.so (2013.1, Build901 2013/11/27)

>  <Rbt.Parameter_File>
/export/apps/rDock/src/rDock_2013.1_src/data/scripts/dock_solv.prm

>  <Rbt.Receptor>
prm/pocket_docking_4.prm

>  <SCORE>
-16.6451

>  <SCORE.INTER>
-14.2772

>  <SCORE.INTER.CONST>
1

>  <SCORE.INTER.POLAR>
0

>  <SCORE.INTER.ROT>
7

>  <SCORE.INTER.SOLV>
18.7769

>  <SCORE.INTER.VDW>
-24.0437

>  <SCORE.INTER.norm>
-0.528784

>  <SCORE.INTRA>
-2.36796

>  <SCORE.INTRA.DIHEDRAL>
-3.02298

>  <SCORE.INTRA.DIHEDRAL.0>
8.34559

>  <SCORE.INTRA.POLAR>
0

>  <SCORE.INTRA.POLAR.0>
0

>  <SCORE.INTRA.REPUL>
0

>  <SCORE.INTRA.REPUL.0>
0

>  <SCORE.INTRA.SOLV>
-0.567956

>  <SCORE.INTRA.SOLV.lig_0>
-48.829

>  <SCORE.INTRA.VDW>
-0.572494

>  <SCORE.INTRA.VDW.0>
-1.77092

>  <SCORE.INTRA.norm>
-0.0877023

>  <SCORE.RESTR>
0

>  <SCORE.RESTR.CAVITY>
0

>  <SCORE.RESTR.norm>
0

>  <SCORE.SYSTEM>
0

>  <SCORE.SYSTEM.CONST>
0

>  <SCORE.SYSTEM.DIHEDRAL>
0

>  <SCORE.SYSTEM.SOLV>
0

>  <SCORE.SYSTEM.norm>
0

>  <SCORE.heavy>
27

>  <SCORE.norm>
-0.616487

>  <RMSD>
1.818

$$$$
ligand
 OpenBabel11021811503D
libRbt.so/2013.1/901 2013/11/27
 27 29  0  0  0  0  0  0  0  0999 V2000
   45.2753  -26.1122 -103.4938 N   0  0  0  0  0  0  0  0  0  0  0  0
   46.5645  -26.6902 -103.0982 C   0  0  2  0  0  0  0  0  0  0  0  0
   47.6004  -25.5907 -102.9939 C   0  0  0  0  0  0  0  0  0  0  0  0
   48.2859  -25.4857 -101.9880 O   0  0  0  0  0  0  0  0  0  0  0  0
   47.0469  -27.7310 -104.1177 C   0  0  0  0  0  0  0  0  0  0  0  0
   48.1466  -28.6004 -103.5247 C   0  0  0  0  0  0  0  0  0  0  0  0
   49.7778  -27.7644 -103.4617 S   0  0  2  0  0  0  0  0  0  0  0  0
   50.0335  -27.1717 -105.1655 C   0  0  0  0  0  0  0  0  0  0  0  0
   50.7502  -29.2669 -103.5368 C   0  0  0  0  0  0  0  0  0  0  0  0
   51.1142  -29.8212 -102.1851 C   0  0  1  0  0  0  0  0  0  0  0  0
   50.1208  -29.3788 -101.2447 O   0  0  0  0  0  0  0  0  0  0  0  0
   50.9074  -31.2715 -102.3626 C   0  0  1  0  0  0  0  0  0  0  0  0
   52.1555  -31.9025 -102.6446 O   0  0  0  0  0  0  0  0  0  0  0  0
   50.4139  -31.6947 -101.0137 C   0  0  1  0  0  0  0  0  0  0  0  0
   51.5250  -32.0035 -100.1469 O   0  0  0  0  0  0  0  0  0  0  0  0
   49.6212  -30.4799 -100.4446 C   0  0  2  0  0  0  0  0  0  0  0  0
   47.7816  -24.8239 -103.9235 O   0  0  0  0  0  0  0  0  0  0  0  0
   45.3314  -32.1326 -103.1025 N   0  0  0  0  0  0  0  0  0  0  0  0
   46.6297  -32.4214 -103.3650 C   0  0  0  0  0  0  0  0  0  0  0  0
   47.6302  -31.9681 -102.5811 N   0  0  0  0  0  0  0  0  0  0  0  0
   47.3754  -31.1363 -101.5580 C   0  0  0  0  0  0  0  0  0  0  0  0
   46.0104  -30.7692 -101.2673 C   0  0  0  0  0  0  0  0  0  0  0  0
   44.9788  -31.3155 -102.0876 C   0  0  0  0  0  0  0  0  0  0  0  0
   43.6515  -31.0140 -101.8594 N   0  0  0  0  0  0  0  0  0  0  0  0
   46.0357  -29.9390 -100.2180 N   0  0  0  0  0  0  0  0  0  0  0  0
   47.2697  -29.7599  -99.8513 C   0  0  0  0  0  0  0  0  0  0  0  0
   48.1414  -30.4787 -100.6356 N   0  0  0  0  0  0  0  0  0  0  0  0
  2  1  1  6  0  0  0
  2  3  1  0  0  0  0
  2  5  1  0  0  0  0
  3  4  1  0  0  0  0
  3 17  1  0  0  0  0
  5  6  1  0  0  0  0
  7  6  1  6  0  0  0
  7  8  1  0  0  0  0
  7  9  1  0  0  0  0
 10  9  1  6  0  0  0
 10 11  1  0  0  0  0
 10 12  1  0  0  0  0
 11 16  1  0  0  0  0
 12 13  1  1  0  0  0
 12 14  1  0  0  0  0
 14 15  1  1  0  0  0
 14 16  1  0  0  0  0
 16 27  1  6  0  0  0
 18 19  2  0  0  0  0
 18 23  1  0  0  0  0
 19 20  1  0  0  0  0
 20 21  2  0  0  0  0
 21 22  1  0  0  0  0
 21 27  1  0  0  0  0
 22 23  2  0  0  0  0
 22 25  1  0  0  0  0
 23 24  1  0  0  0  0
 25 26  2  0  0  0  0
 26 27  1  0  0  0  0
M  END
>  <CHROM.1>
129.05064974,-163.68481504,-76.99884616,-52.38416862,-92.40524261,25.84864235
90.96780446,48.30762193,-29.37492144,-102.36512622,1.91866152,0.02268334
-0.36788292

>  <Name>
ligand

>  <RI>
0

>  <Rbt.Current_Directory>
/home/itssahil/PROJECTS/Mol_Feturizer/New_Systems/rnas/4L81

>  <Rbt.Executable>
rbdock ($Id: //depot/dev/client3/rdock/2013.1/src/exe/rbdock.cxx#4 $)

>  <Rbt.Library>
libRbt.so (2013.1, Build901 2013/11/27)

>  <Rbt.Parameter_File>
/export/apps/rDock/src/rDock_2013.1_src/data/scripts/dock_solv.prm

>  <Rbt.Receptor>
prm/pocket_docking_3.prm

>  <SCORE>
-15.0525

>  <SCORE.INTER>
-13.0847

>  <SCORE.INTER.CONST>
1

>  <SCORE.INTER.POLAR>
0

>  <SCORE.INTER.ROT>
7

>  <SCORE.INTER.SOLV>
18.5531

>  <SCORE.INTER.VDW>
-23.1742

>  <SCORE.INTER.norm>
-0.484619

>  <SCORE.INTRA>
-1.96783

>  <SCORE.INTRA.DIHEDRAL>
2.34094

>  <SCORE.INTRA.DIHEDRAL.0>
8.34559

>  <SCORE.INTRA.POLAR>
0

>  <SCORE.INTRA.POLAR.0>
0

>  <SCORE.INTRA.REPUL>
0

>  <SCORE.INTRA.REPUL.0>
0

>  <SCORE.INTRA.SOLV>
-1.02547

>  <SCORE.INTRA.SOLV.lig_0>
-48.829

>  <SCORE.INTRA.VDW>
-2.62557

>  <SCORE.INTRA.VDW.0>
-1.77092

>  <SCORE.INTRA.norm>
-0.0728827

>  <SCORE.RESTR>
0

>  <SCORE.RESTR.CAVITY>
0

>  <SCORE.RESTR.norm>
0

>  <SCORE.SYSTEM>
0

>  <SCORE.SYSTEM.CONST>
0

>  <SCORE.SYSTEM.DIHEDRAL>
0

>  <SCORE.SYSTEM.SOLV>
0

>  <SCORE.SYSTEM.norm>
0

>  <SCORE.heavy>
27

>  <SCORE.norm>
-0.557502

>  <RMSD>
1.912

$$$$
ligand
 OpenBabel11021811503D
libRbt.so/2013.1/901 2013/11/27
 27 29  0  0  0  0  0  0  0  0999 V2000
   44.8781  -25.4858 -105.2754 N   0  0  0  0  0  0  0  0  0  0  0  0
   45.6175  -26.6316 -104.7340 C   0  0  2  0  0  0  0  0  0  0  0  0
   44.7801  -27.3193 -103.6763 C   0  0  0  0  0  0  0  0  0  0  0  0
   44.3537  -28.4481 -103.8682 O   0  0  0  0  0  0  0  0  0  0  0  0
   46.9471  -26.1925 -104.1057 C   0  0  0  0  0  0  0  0  0  0  0  0
   47.7967  -27.4004 -103.7370 C   0  0  0  0  0  0  0  0  0  0  0  0
   49.5702  -26.9961 -103.5034 S   0  0  2  0  0  0  0  0  0  0  0  0
   50.0768  -26.2989 -105.1086 C   0  0  0  0  0  0  0  0  0  0  0  0
   50.1646  -28.6715 -103.7234 C   0  0  0  0  0  0  0  0  0  0  0  0
   50.4425  -29.3905 -102.4301 C   0  0  1  0  0  0  0  0  0  0  0  0
   49.2274  -29.4023 -101.6618 O   0  0  0  0  0  0  0  0  0  0  0  0
   50.6719  -30.7792 -102.8735 C   0  0  1  0  0  0  0  0  0  0  0  0
   52.0735  -31.0220 -102.9827 O   0  0  0  0  0  0  0  0  0  0  0  0
   50.1013  -31.5777 -101.7425 C   0  0  1  0  0  0  0  0  0  0  0  0
   51.0990  -31.7853 -100.7213 O   0  0  0  0  0  0  0  0  0  0  0  0
   48.9253  -30.7318 -101.1686 C   0  0  2  0  0  0  0  0  0  0  0  0
   44.5529  -26.7670 -102.6142 O   0  0  0  0  0  0  0  0  0  0  0  0
   43.6978  -29.8002 -101.1078 N   0  0  0  0  0  0  0  0  0  0  0  0
   44.6541  -29.2003 -100.3572 C   0  0  0  0  0  0  0  0  0  0  0  0
   45.9618  -29.5013 -100.5004 N   0  0  0  0  0  0  0  0  0  0  0  0
   46.3522  -30.4770 -101.3365 C   0  0  0  0  0  0  0  0  0  0  0  0
   45.3630  -31.1709 -102.1256 C   0  0  0  0  0  0  0  0  0  0  0  0
   43.9976  -30.7828 -101.9835 C   0  0  0  0  0  0  0  0  0  0  0  0
   43.0016  -31.3977 -102.7146 N   0  0  0  0  0  0  0  0  0  0  0  0
   46.0083  -32.0851 -102.8595 N   0  0  0  0  0  0  0  0  0  0  0  0
   47.2785  -32.0222 -102.5907 C   0  0  0  0  0  0  0  0  0  0  0  0
   47.5529  -31.0439 -101.6638 N   0  0  0  0  0  0  0  0  0  0  0  0
  2  1  1  1  0  0  0
  2  3  1  0  0  0  0
  2  5  1  0  0  0  0
  3  4  1  0  0  0  0
  3 17  1  0  0  0  0
  5  6  1  0  0  0  0
  7  6  1  6  0  0  0
  7  8  1  0  0  0  0
  7  9  1  0  0  0  0
 10  9  1  6  0  0  0
 10 11  1  0  0  0  0
 10 12  1  0  0  0  0
 11 16  1  0  0  0  0
 12 13  1  1  0  0  0
 12 14  1  0  0  0  0
 14 15  1  1  0  0  0
 14 16  1  0  0  0  0
 16 27  1  6  0  0  0
 18 19  2  0  0  0  0
 18 23  1  0  0  0  0
 19 20  1  0  0  0  0
 20 21  2  0  0  0  0
 21 22  1  0  0  0  0
 21 27  1  0  0  0  0
 22 23  2  0  0  0  0
 22 25  1  0  0  0  0
 23 24  1  0  0  0  0
 25 26  2  0  0  0  0
 26 27  1  0  0  0  0
M  END
>  <CHROM.1>
113.11282579,-171.50897734,161.14804216,-59.13609716,-99.02060786,57.98375317
-66.93549814,47.40161174,-29.20291066,-102.69554170,-2.88180700,-0.06075554
2.63503009

>  <Name>
ligand

>  <RI>
0

>  <Rbt.Current_Directory>
/home/itssahil/PROJECTS/Mol_Feturizer/New_Systems/rnas/4L81

>  <Rbt.Executable>
rbdock ($Id: //depot/dev/client3/rdock/2013.1/src/exe/rbdock.cxx#4 $)

>  <Rbt.Library>
libRbt.so (2013.1, Build901 2013/11/27)

>  <Rbt.Parameter_File>
/export/apps/rDock/src/rDock_2013.1_src/data/scripts/dock_solv.prm

>  <Rbt.Receptor>
prm/pocket_docking_2.prm

>  <SCORE>
-16.2137

>  <SCORE.INTER>
-13.3605

>  <SCORE.INTER.CONST>
1

>  <SCORE.INTER.POLAR>
0

>  <SCORE.INTER.ROT>
7

>  <SCORE.INTER.SOLV>
20.4745

>  <SCORE.INTER.VDW>
-23.9985

>  <SCORE.INTER.norm>
-0.494833

>  <SCORE.INTRA>
-2.88006

>  <SCORE.INTRA.DIHEDRAL>
-0.810848

>  <SCORE.INTRA.DIHEDRAL.0>
8.34559

>  <SCORE.INTRA.POLAR>
0

>  <SCORE.INTRA.POLAR.0>
0

>  <SCORE.INTRA.REPUL>
0

>  <SCORE.INTRA.REPUL.0>
0

>  <SCORE.INTRA.SOLV>
-0.76457

>  <SCORE.INTRA.SOLV.lig_0>
-48.829

>  <SCORE.INTRA.VDW>
-2.09235

>  <SCORE.INTRA.VDW.0>
-1.77092

>  <SCORE.INTRA.norm>
-0.106669

>  <SCORE.RESTR>
0.0268529

>  <SCORE.RESTR.CAVITY>
0.0268529

>  <SCORE.RESTR.norm>
0.000994552

>  <SCORE.SYSTEM>
0

>  <SCORE.SYSTEM.CONST>
0

>  <SCORE.SYSTEM.DIHEDRAL>
0

>  <SCORE.SYSTEM.SOLV>
0

>  <SCORE.SYSTEM.norm>
0

>  <SCORE.heavy>
27

>  <SCORE.norm>
-0.600507

>  <RMSD>
1.919

$$$$
ligand
 OpenBabel11021811503D
libRbt.so/2013.1/901 2013/11/27
 27 29  0  0  0  0  0  0  0  0999 V2000
   43.9156  -28.0404 -104.3624 N   0  0  0  0  0  0  0  0  0  0  0  0
   44.7393  -26.8268 -104.4015 C   0  0  2  0  0  0  0  0  0  0  0  0
   45.2010  -26.5751 -105.8214 C   0  0  0  0  0  0  0  0  0  0  0  0
   45.5477  -27.5085 -106.5295 O   0  0  0  0  0  0  0  0  0  0  0  0
   45.9710  -26.9580 -103.4954 C   0  0  0  0  0  0  0  0  0  0  0  0
   46.9186  -25.7839 -103.6968 C   0  0  0  0  0  0  0  0  0  0  0  0
   48.3981  -25.8518 -102.6152 S   0  0  2  0  0  0  0  0  0  0  0  0
   49.5930  -24.7479 -103.4358 C   0  0  0  0  0  0  0  0  0  0  0  0
   48.9967  -27.4235 -103.2319 C   0  0  0  0  0  0  0  0  0  0  0  0
   49.6090  -28.2976 -102.1699 C   0  0  1  0  0  0  0  0  0  0  0  0
   48.5421  -28.8255 -101.3637 O   0  0  0  0  0  0  0  0  0  0  0  0
   50.1446  -29.4297 -102.9503 C   0  0  1  0  0  0  0  0  0  0  0  0
   51.5367  -29.2301 -103.1904 O   0  0  0  0  0  0  0  0  0  0  0  0
   49.9471  -30.5858 -102.0193 C   0  0  1  0  0  0  0  0  0  0  0  0
   51.0790  -30.7168 -101.1346 O   0  0  0  0  0  0  0  0  0  0  0  0
   48.6660  -30.2600 -101.1942 C   0  0  2  0  0  0  0  0  0  0  0  0
   45.1991  -25.4459 -106.2795 O   0  0  0  0  0  0  0  0  0  0  0  0
   43.3569  -30.2033 -101.2823 N   0  0  0  0  0  0  0  0  0  0  0  0
   44.1816  -29.3908 -100.5770 C   0  0  0  0  0  0  0  0  0  0  0  0
   45.5242  -29.4829 -100.6763 N   0  0  0  0  0  0  0  0  0  0  0  0
   46.0914  -30.4495 -101.4163 C   0  0  0  0  0  0  0  0  0  0  0  0
   45.2507  -31.3630 -102.1519 C   0  0  0  0  0  0  0  0  0  0  0  0
   43.8368  -31.1950 -102.0622 C   0  0  0  0  0  0  0  0  0  0  0  0
   42.9749  -32.0271 -102.7473 N   0  0  0  0  0  0  0  0  0  0  0  0
   46.0564  -32.2182 -102.7926 N   0  0  0  0  0  0  0  0  0  0  0  0
   47.2914  -31.9232 -102.5148 C   0  0  0  0  0  0  0  0  0  0  0  0
   47.3770  -30.8364 -101.6763 N   0  0  0  0  0  0  0  0  0  0  0  0
  2  1  1  6  0  0  0
  2  3  1  0  0  0  0
  2  5  1  0  0  0  0
  3  4  1  0  0  0  0
  3 17  1  0  0  0  0
  5  6  1  0  0  0  0
  7  6  1  6  0  0  0
  7  8  1  0  0  0  0
  7  9  1  0  0  0  0
 10  9  1  6  0  0  0
 10 11  1  0  0  0  0
 10 12  1  0  0  0  0
 11 16  1  0  0  0  0
 12 13  1  1  0  0  0
 12 14  1  0  0  0  0
 14 15  1  1  0  0  0
 14 16  1  0  0  0  0
 16 27  1  6  0  0  0
 18 19  2  0  0  0  0
 18 23  1  0  0  0  0
 19 20  1  0  0  0  0
 20 21  2  0  0  0  0
 21 22  1  0  0  0  0
 21 27  1  0  0  0  0
 22 23  2  0  0  0  0
 22 25  1  0  0  0  0
 23 24  1  0  0  0  0
 25 26  2  0  0  0  0
 26 27  1  0  0  0  0
M  END
>  <CHROM.1>
-39.91153103,171.76919013,178.62228336,160.42853676,-142.81295827,73.84979159
-46.14813650,47.02856002,-28.73952012,-102.83770870,2.50766493,0.20328730
2.62562424

>  <Name>
ligand

>  <RI>
0

>  <Rbt.Current_Directory>
/home/itssahil/PROJECTS/Mol_Feturizer/New_Systems/rnas/4L81

>  <Rbt.Executable>
rbdock ($Id: //depot/dev/client3/rdock/2013.1/src/exe/rbdock.cxx#4 $)

>  <Rbt.Library>
libRbt.so (2013.1, Build901 2013/11/27)

>  <Rbt.Parameter_File>
/export/apps/rDock/src/rDock_2013.1_src/data/scripts/dock_solv.prm

>  <Rbt.Receptor>
prm/pocket_docking_2.prm

>  <SCORE>
-13.2845

>  <SCORE.INTER>
-12.4192

>  <SCORE.INTER.CONST>
1

>  <SCORE.INTER.POLAR>
0

>  <SCORE.INTER.ROT>
7

>  <SCORE.INTER.SOLV>
22.5173

>  <SCORE.INTER.VDW>
-24.0519

>  <SCORE.INTER.norm>
-0.45997

>  <SCORE.INTRA>
-1.12168

>  <SCORE.INTRA.DIHEDRAL>
-0.0481675

>  <SCORE.INTRA.DIHEDRAL.0>
8.34559

>  <SCORE.INTRA.POLAR>
0

>  <SCORE.INTRA.POLAR.0>
0

>  <SCORE.INTRA.REPUL>
0

>  <SCORE.INTRA.REPUL.0>
0

>  <SCORE.INTRA.SOLV>
-1.11012

>  <SCORE.INTRA.SOLV.lig_0>
-48.829

>  <SCORE.INTRA.VDW>
-0.542541

>  <SCORE.INTRA.VDW.0>
-1.77092

>  <SCORE.INTRA.norm>
-0.0415439

>  <SCORE.RESTR>
0.256383

>  <SCORE.RESTR.CAVITY>
0.256383

>  <SCORE.RESTR.norm>
0.00949567

>  <SCORE.SYSTEM>
0

>  <SCORE.SYSTEM.CONST>
0

>  <SCORE.SYSTEM.DIHEDRAL>
0

>  <SCORE.SYSTEM.SOLV>
0

>  <SCORE.SYSTEM.norm>
0

>  <SCORE.heavy>
27

>  <SCORE.norm>
-0.492018

>  <RMSD>
1.973

$$$$
ligand
 OpenBabel11021811503D
libRbt.so/2013.1/901 2013/11/27
 27 29  0  0  0  0  0  0  0  0999 V2000
   45.5905  -26.8277 -103.0543 N   0  0  0  0  0  0  0  0  0  0  0  0
   46.3222  -25.6245 -103.4661 C   0  0  2  0  0  0  0  0  0  0  0  0
   46.4106  -25.5792 -104.9770 C   0  0  0  0  0  0  0  0  0  0  0  0
   45.6145  -26.2077 -105.6582 O   0  0  0  0  0  0  0  0  0  0  0  0
   47.7428  -25.6081 -102.8855 C   0  0  0  0  0  0  0  0  0  0  0  0
   48.4070  -26.9687 -103.0413 C   0  0  0  0  0  0  0  0  0  0  0  0
   50.2300  -26.8705 -103.2164 S   0  0  2  0  0  0  0  0  0  0  0  0
   50.4753  -26.2393 -104.9078 C   0  0  0  0  0  0  0  0  0  0  0  0
   50.4725  -28.6175 -103.5294 C   0  0  0  0  0  0  0  0  0  0  0  0
   50.7819  -29.4175 -102.2920 C   0  0  1  0  0  0  0  0  0  0  0  0
   49.6097  -29.4138 -101.4596 O   0  0  0  0  0  0  0  0  0  0  0  0
   50.9183  -30.7895 -102.8181 C   0  0  1  0  0  0  0  0  0  0  0  0
   52.2984  -31.0915 -103.0168 O   0  0  0  0  0  0  0  0  0  0  0  0
   50.3690  -31.6202 -101.7000 C   0  0  1  0  0  0  0  0  0  0  0  0
   51.4074  -31.9292 -100.7473 O   0  0  0  0  0  0  0  0  0  0  0  0
   49.2682  -30.7523 -101.0194 C   0  0  2  0  0  0  0  0  0  0  0  0
   47.2536  -24.8909 -105.5252 O   0  0  0  0  0  0  0  0  0  0  0  0
   44.0904  -29.6813 -100.5281 N   0  0  0  0  0  0  0  0  0  0  0  0
   45.1116  -29.1890  -99.7847 C   0  0  0  0  0  0  0  0  0  0  0  0
   46.3965  -29.5115 -100.0415 N   0  0  0  0  0  0  0  0  0  0  0  0
   46.7002  -30.4076 -100.9944 C   0  0  0  0  0  0  0  0  0  0  0  0
   45.6407  -30.9885 -101.7834 C   0  0  0  0  0  0  0  0  0  0  0  0
   44.3011  -30.5777 -101.5152 C   0  0  0  0  0  0  0  0  0  0  0  0
   43.2410  -31.0858 -102.2382 N   0  0  0  0  0  0  0  0  0  0  0  0
   46.2071  -31.8413 -102.6452 N   0  0  0  0  0  0  0  0  0  0  0  0
   47.4928  -31.8428 -102.4541 C   0  0  0  0  0  0  0  0  0  0  0  0
   47.8578  -30.9725 -101.4536 N   0  0  0  0  0  0  0  0  0  0  0  0
  2  1  1  6  0  0  0
  2  3  1  0  0  0  0
  2  5  1  0  0  0  0
  3  4  1  0  0  0  0
  3 17  1  0  0  0  0
  5  6  1  0  0  0  0
  7  6  1  6  0  0  0
  7  8  1  0  0  0  0
  7  9  1  0  0  0  0
 10  9  1  6  0  0  0
 10 11  1  0  0  0  0
 10 12  1  0  0  0  0
 11 16  1  0  0  0  0
 12 13  1  1  0  0  0
 12 14  1  0  0  0  0
 14 15  1  1  0  0  0
 14 16  1  0  0  0  0
 16 27  1  6  0  0  0
 18 19  2  0  0  0  0
 18 23  1  0  0  0  0
 19 20  1  0  0  0  0
 20 21  2  0  0  0  0
 21 22  1  0  0  0  0
 21 27  1  0  0  0  0
 22 23  2  0  0  0  0
 22 25  1  0  0  0  0
 23 24  1  0  0  0  0
 25 26  2  0  0  0  0
 26 27  1  0  0  0  0
M  END
>  <CHROM.1>
21.49334032,44.92908645,150.06280460,-73.62605274,-93.62195406,67.20274838
-69.91514552,47.97736298,-28.91039237,-102.55360190,1.89241168,0.11176607
-0.52048388

>  <Name>
ligand

>  <RI>
0

>  <Rbt.Current_Directory>
/home/itssahil/PROJECTS/Mol_Feturizer/New_Systems/rnas/4L81

>  <Rbt.Executable>
rbdock ($Id: //depot/dev/client3/rdock/2013.1/src/exe/rbdock.cxx#4 $)

>  <Rbt.Library>
libRbt.so (2013.1, Build901 2013/11/27)

>  <Rbt.Parameter_File>
/export/apps/rDock/src/rDock_2013.1_src/data/scripts/dock_solv.prm

>  <Rbt.Receptor>
prm/pocket_docking_4.prm

>  <SCORE>
-15.6199

>  <SCORE.INTER>
-15.2194

>  <SCORE.INTER.CONST>
1

>  <SCORE.INTER.POLAR>
0

>  <SCORE.INTER.ROT>
7

>  <SCORE.INTER.SOLV>
18.4397

>  <SCORE.INTER.VDW>
-24.5595

>  <SCORE.INTER.norm>
-0.563681

>  <SCORE.INTRA>
-0.400485

>  <SCORE.INTRA.DIHEDRAL>
0.50329

>  <SCORE.INTRA.DIHEDRAL.0>
8.34559

>  <SCORE.INTRA.POLAR>
0

>  <SCORE.INTRA.POLAR.0>
0

>  <SCORE.INTRA.REPUL>
0

>  <SCORE.INTRA.REPUL.0>
0

>  <SCORE.INTRA.SOLV>
-0.456015

>  <SCORE.INTRA.SOLV.lig_0>
-48.829

>  <SCORE.INTRA.VDW>
-0.424123

>  <SCORE.INTRA.VDW.0>
-1.77092

>  <SCORE.INTRA.norm>
-0.0148328

>  <SCORE.RESTR>
0

>  <SCORE.RESTR.CAVITY>
0

>  <SCORE.RESTR.norm>
0

>  <SCORE.SYSTEM>
0

>  <SCORE.SYSTEM.CONST>
0

>  <SCORE.SYSTEM.DIHEDRAL>
0

>  <SCORE.SYSTEM.SOLV>
0

>  <SCORE.SYSTEM.norm>
0

>  <SCORE.heavy>
27

>  <SCORE.norm>
-0.578514

>  <RMSD>
1.973

$$$$
ligand
 OpenBabel11021811503D
libRbt.so/2013.1/901 2013/11/27
 27 29  0  0  0  0  0  0  0  0999 V2000
   46.2205  -27.5426 -106.6969 N   0  0  0  0  0  0  0  0  0  0  0  0
   45.6924  -27.5599 -105.3281 C   0  0  2  0  0  0  0  0  0  0  0  0
   44.9007  -26.2940 -105.0761 C   0  0  0  0  0  0  0  0  0  0  0  0
   45.1639  -25.2718 -105.6914 O   0  0  0  0  0  0  0  0  0  0  0  0
   46.8227  -27.6520 -104.2940 C   0  0  0  0  0  0  0  0  0  0  0  0
   47.7049  -26.4127 -104.3445 C   0  0  0  0  0  0  0  0  0  0  0  0
   49.1000  -26.4662 -103.1553 S   0  0  2  0  0  0  0  0  0  0  0  0
   50.4528  -25.6115 -104.0266 C   0  0  0  0  0  0  0  0  0  0  0  0
   49.5658  -28.1603 -103.5044 C   0  0  0  0  0  0  0  0  0  0  0  0
   49.9586  -28.9449 -102.2809 C   0  0  1  0  0  0  0  0  0  0  0  0
   48.7643  -29.2151 -101.5276 O   0  0  0  0  0  0  0  0  0  0  0  0
   50.3967  -30.2345 -102.8492 C   0  0  1  0  0  0  0  0  0  0  0  0
   51.8184  -30.2473 -102.9683 O   0  0  0  0  0  0  0  0  0  0  0  0
   49.9626  -31.2129 -101.8021 C   0  0  1  0  0  0  0  0  0  0  0  0
   50.9862  -31.3584 -100.7959 O   0  0  0  0  0  0  0  0  0  0  0  0
   48.6736  -30.6152 -101.1624 C   0  0  2  0  0  0  0  0  0  0  0  0
   43.9750  -26.2931 -104.2836 O   0  0  0  0  0  0  0  0  0  0  0  0
   43.3655  -30.4952 -101.0736 N   0  0  0  0  0  0  0  0  0  0  0  0
   44.2221  -29.8247 -100.2646 C   0  0  0  0  0  0  0  0  0  0  0  0
   45.5598  -29.9106 -100.4202 N   0  0  0  0  0  0  0  0  0  0  0  0
   46.0910  -30.7397 -101.3334 C   0  0  0  0  0  0  0  0  0  0  0  0
   45.2162  -31.5044 -102.1891 C   0  0  0  0  0  0  0  0  0  0  0  0
   43.8081  -31.3414 -102.0276 C   0  0  0  0  0  0  0  0  0  0  0  0
   42.9146  -32.0345 -102.8189 N   0  0  0  0  0  0  0  0  0  0  0  0
   45.9904  -32.2432 -102.9926 N   0  0  0  0  0  0  0  0  0  0  0  0
   47.2371  -32.0121 -102.7068 C   0  0  0  0  0  0  0  0  0  0  0  0
   47.3628  -31.0876 -101.6963 N   0  0  0  0  0  0  0  0  0  0  0  0
  2  1  1  6  0  0  0
  2  3  1  0  0  0  0
  2  5  1  0  0  0  0
  3  4  1  0  0  0  0
  3 17  1  0  0  0  0
  5  6  1  0  0  0  0
  7  6  1  6  0  0  0
  7  8  1  0  0  0  0
  7  9  1  0  0  0  0
 10  9  1  6  0  0  0
 10 11  1  0  0  0  0
 10 12  1  0  0  0  0
 11 16  1  0  0  0  0
 12 13  1  1  0  0  0
 12 14  1  0  0  0  0
 14 15  1  1  0  0  0
 14 16  1  0  0  0  0
 16 27  1  6  0  0  0
 18 19  2  0  0  0  0
 18 23  1  0  0  0  0
 19 20  1  0  0  0  0
 20 21  2  0  0  0  0
 21 22  1  0  0  0  0
 21 27  1  0  0  0  0
 22 23  2  0  0  0  0
 22 25  1  0  0  0  0
 23 24  1  0  0  0  0
 25 26  2  0  0  0  0
 26 27  1  0  0  0  0
M  END
>  <CHROM.1>
-27.15078069,64.21378705,-178.89747883,145.29865920,-140.28808651,72.37028465
-66.52472749,47.26981582,-29.07323681,-102.90552347,0.64160008,-0.09344367
-0.56931567

>  <Name>
ligand

>  <RI>
0

>  <Rbt.Current_Directory>
/home/itssahil/PROJECTS/Mol_Feturizer/New_Systems/rnas/4L81

>  <Rbt.Executable>
rbdock ($Id: //depot/dev/client3/rdock/2013.1/src/exe/rbdock.cxx#4 $)

>  <Rbt.Library>
libRbt.so (2013.1, Build901 2013/11/27)

>  <Rbt.Parameter_File>
/export/apps/rDock/src/rDock_2013.1_src/data/scripts/dock_solv.prm

>  <Rbt.Receptor>
prm/pocket_docking_2.prm

>  <SCORE>
-7.33172

>  <SCORE.INTER>
-9.20973

>  <SCORE.INTER.CONST>
1

>  <SCORE.INTER.POLAR>
0

>  <SCORE.INTER.ROT>
7

>  <SCORE.INTER.SOLV>
19.8253

>  <SCORE.INTER.VDW>
-21.0149

>  <SCORE.INTER.norm>
-0.341101

>  <SCORE.INTRA>
1.26765

>  <SCORE.INTRA.DIHEDRAL>
1.12228

>  <SCORE.INTRA.DIHEDRAL.0>
8.34559

>  <SCORE.INTRA.POLAR>
0

>  <SCORE.INTRA.POLAR.0>
0

>  <SCORE.INTRA.REPUL>
0

>  <SCORE.INTRA.REPUL.0>
0

>  <SCORE.INTRA.SOLV>
-0.594089

>  <SCORE.INTRA.SOLV.lig_0>
-48.829

>  <SCORE.INTRA.VDW>
1.00356

>  <SCORE.INTRA.VDW.0>
-1.77092

>  <SCORE.INTRA.norm>
0.0469501

>  <SCORE.RESTR>
0.610358

>  <SCORE.RESTR.CAVITY>
0.610358

>  <SCORE.RESTR.norm>
0.0226058

>  <SCORE.SYSTEM>
0

>  <SCORE.SYSTEM.CONST>
0

>  <SCORE.SYSTEM.DIHEDRAL>
0

>  <SCORE.SYSTEM.SOLV>
0

>  <SCORE.SYSTEM.norm>
0

>  <SCORE.heavy>
27

>  <SCORE.norm>
-0.271545

>  <RMSD>
1.978

$$$$
ligand
 OpenBabel11021811503D
libRbt.so/2013.1/901 2013/11/27
 27 29  0  0  0  0  0  0  0  0999 V2000
   46.1525  -28.1226 -105.4175 N   0  0  0  0  0  0  0  0  0  0  0  0
   46.4941  -27.7071 -104.0525 C   0  0  2  0  0  0  0  0  0  0  0  0
   45.2821  -27.0786 -103.3975 C   0  0  0  0  0  0  0  0  0  0  0  0
   44.5151  -26.3917 -104.0553 O   0  0  0  0  0  0  0  0  0  0  0  0
   47.6431  -26.6897 -104.0489 C   0  0  0  0  0  0  0  0  0  0  0  0
   48.3550  -26.6819 -102.7035 C   0  0  0  0  0  0  0  0  0  0  0  0
   50.1827  -26.7203 -102.8494 S   0  0  2  0  0  0  0  0  0  0  0  0
   50.5094  -25.9660 -104.4754 C   0  0  0  0  0  0  0  0  0  0  0  0
   50.2873  -28.4473 -103.3135 C   0  0  0  0  0  0  0  0  0  0  0  0
   50.5362  -29.3727 -102.1523 C   0  0  1  0  0  0  0  0  0  0  0  0
   49.3289  -29.4393 -101.3745 O   0  0  0  0  0  0  0  0  0  0  0  0
   50.6847  -30.6856 -102.8095 C   0  0  1  0  0  0  0  0  0  0  0  0
   52.0698  -30.9826 -102.9789 O   0  0  0  0  0  0  0  0  0  0  0  0
   50.0807  -31.6190 -101.8065 C   0  0  1  0  0  0  0  0  0  0  0  0
   51.0741  -32.0359 -100.8469 O   0  0  0  0  0  0  0  0  0  0  0  0
   48.9581  -30.8115 -101.0883 C   0  0  2  0  0  0  0  0  0  0  0  0
   45.0441  -27.2795 -102.2194 O   0  0  0  0  0  0  0  0  0  0  0  0
   43.7998  -29.5764 -100.8338 N   0  0  0  0  0  0  0  0  0  0  0  0
   44.7956  -29.1427 -100.0225 C   0  0  0  0  0  0  0  0  0  0  0  0
   46.0810  -29.5018 -100.2222 N   0  0  0  0  0  0  0  0  0  0  0  0
   46.4052  -30.3785 -101.1864 C   0  0  0  0  0  0  0  0  0  0  0  0
   45.3706  -30.8979 -102.0479 C   0  0  0  0  0  0  0  0  0  0  0  0
   44.0329  -30.4491 -101.8369 C   0  0  0  0  0  0  0  0  0  0  0  0
   42.9967  -30.8978 -102.6303 N   0  0  0  0  0  0  0  0  0  0  0  0
   45.9536  -31.7432 -102.9060 N   0  0  0  0  0  0  0  0  0  0  0  0
   47.2264  -31.7953 -102.6482 C   0  0  0  0  0  0  0  0  0  0  0  0
   47.5663  -30.9691 -101.6025 N   0  0  0  0  0  0  0  0  0  0  0  0
  2  1  1  6  0  0  0
  2  3  1  0  0  0  0
  2  5  1  0  0  0  0
  3  4  1  0  0  0  0
  3 17  1  0  0  0  0
  5  6  1  0  0  0  0
  7  6  1  6  0  0  0
  7  8  1  0  0  0  0
  7  9  1  0  0  0  0
 10  9  1  6  0  0  0
 10 11  1  0  0  0  0
 10 12  1  0  0  0  0
 11 16  1  0  0  0  0
 12 13  1  1  0  0  0
 12 14  1  0  0  0  0
 14 15  1  1  0  0  0
 14 16  1  0  0  0  0
 16 27  1  6  0  0  0
 18 19  2  0  0  0  0
 18 23  1  0  0  0  0
 19 20  1  0  0  0  0
 20 21  2  0  0  0  0
 21 22  1  0  0  0  0
 21 27  1  0  0  0  0
 22 23  2  0  0  0  0
 22 25  1  0  0  0  0
 23 24  1  0  0  0  0
 25 26  2  0  0  0  0
 26 27  1  0  0  0  0
M  END
>  <CHROM.1>
-36.42827749,-157.32464096,133.54933384,26.42639034,-94.81241774,72.08532106
-65.60012690,47.65414332,-29.15036945,-102.46669155,-3.13007927,-0.05337453
2.69434929

>  <Name>
ligand

>  <RI>
0

>  <Rbt.Current_Directory>
/home/itssahil/PROJECTS/Mol_Feturizer/New_Systems/rnas/4L81

>  <Rbt.Executable>
rbdock ($Id: //depot/dev/client3/rdock/2013.1/src/exe/rbdock.cxx#4 $)

>  <Rbt.Library>
libRbt.so (2013.1, Build901 2013/11/27)

>  <Rbt.Parameter_File>
/export/apps/rDock/src/rDock_2013.1_src/data/scripts/dock_solv.prm

>  <Rbt.Receptor>
prm/pocket_docking_2.prm

>  <SCORE>
-14.3466

>  <SCORE.INTER>
-15.2241

>  <SCORE.INTER.CONST>
1

>  <SCORE.INTER.POLAR>
0

>  <SCORE.INTER.ROT>
7

>  <SCORE.INTER.SOLV>
15.5748

>  <SCORE.INTER.VDW>
-23.6077

>  <SCORE.INTER.norm>
-0.563856

>  <SCORE.INTRA>
0.782701

>  <SCORE.INTRA.DIHEDRAL>
5.54691

>  <SCORE.INTRA.DIHEDRAL.0>
8.34559

>  <SCORE.INTRA.POLAR>
0

>  <SCORE.INTRA.POLAR.0>
0

>  <SCORE.INTRA.REPUL>
0

>  <SCORE.INTRA.REPUL.0>
0

>  <SCORE.INTRA.SOLV>
-1.12656

>  <SCORE.INTRA.SOLV.lig_0>
-48.829

>  <SCORE.INTRA.VDW>
-1.42747

>  <SCORE.INTRA.VDW.0>
-1.77092

>  <SCORE.INTRA.norm>
0.0289889

>  <SCORE.RESTR>
0.0948279

>  <SCORE.RESTR.CAVITY>
0.0948279

>  <SCORE.RESTR.norm>
0.00351215

>  <SCORE.SYSTEM>
0

>  <SCORE.SYSTEM.CONST>
0

>  <SCORE.SYSTEM.DIHEDRAL>
0

>  <SCORE.SYSTEM.SOLV>
0

>  <SCORE.SYSTEM.norm>
0

>  <SCORE.heavy>
27

>  <SCORE.norm>
-0.531355

>  <RMSD>
1.984

$$$$
ligand
 OpenBabel11021811503D
libRbt.so/2013.1/901 2013/11/27
 27 29  0  0  0  0  0  0  0  0999 V2000
   48.0655  -25.5033 -105.7732 N   0  0  0  0  0  0  0  0  0  0  0  0
   47.0763  -26.2570 -104.9946 C   0  0  2  0  0  0  0  0  0  0  0  0
   45.6815  -25.8563 -105.4267 C   0  0  0  0  0  0  0  0  0  0  0  0
   44.7416  -25.9736 -104.6549 O   0  0  0  0  0  0  0  0  0  0  0  0
   47.2260  -25.9884 -103.4910 C   0  0  0  0  0  0  0  0  0  0  0  0
   47.9088  -27.1587 -102.7974 C   0  0  0  0  0  0  0  0  0  0  0  0
   49.6959  -26.8801 -102.4942 S   0  0  2  0  0  0  0  0  0  0  0  0
   50.2189  -25.8284 -103.8871 C   0  0  0  0  0  0  0  0  0  0  0  0
   50.2325  -28.4690 -103.1236 C   0  0  0  0  0  0  0  0  0  0  0  0
   50.5178  -29.4821 -102.0470 C   0  0  1  0  0  0  0  0  0  0  0  0
   49.3270  -29.6321 -101.2555 O   0  0  0  0  0  0  0  0  0  0  0  0
   50.6730  -30.7342 -102.8124 C   0  0  1  0  0  0  0  0  0  0  0  0
   52.0588  -30.9935 -103.0309 O   0  0  0  0  0  0  0  0  0  0  0  0
   50.1027  -31.7564 -101.8786 C   0  0  1  0  0  0  0  0  0  0  0  0
   51.1208  -32.2340 -100.9748 O   0  0  0  0  0  0  0  0  0  0  0  0
   48.9824  -31.0289 -101.0762 C   0  0  2  0  0  0  0  0  0  0  0  0
   45.4907  -25.3836 -106.5335 O   0  0  0  0  0  0  0  0  0  0  0  0
   43.8619  -29.6428 -100.8382 N   0  0  0  0  0  0  0  0  0  0  0  0
   44.8747  -29.2071 -100.0494 C   0  0  0  0  0  0  0  0  0  0  0  0
   46.1484  -29.6087 -100.2429 N   0  0  0  0  0  0  0  0  0  0  0  0
   46.4418  -30.5293 -101.1756 C   0  0  0  0  0  0  0  0  0  0  0  0
   45.3875  -31.0515 -102.0112 C   0  0  0  0  0  0  0  0  0  0  0  0
   44.0641  -30.5582 -101.8094 C   0  0  0  0  0  0  0  0  0  0  0  0
   43.0106  -31.0071 -102.5796 N   0  0  0  0  0  0  0  0  0  0  0  0
   45.9411  -31.9439 -102.8406 N   0  0  0  0  0  0  0  0  0  0  0  0
   47.2138  -32.0217 -102.5883 C   0  0  0  0  0  0  0  0  0  0  0  0
   47.5834  -31.1669 -101.5761 N   0  0  0  0  0  0  0  0  0  0  0  0
  2  1  1  6  0  0  0
  2  3  1  0  0  0  0
  2  5  1  0  0  0  0
  3  4  1  0  0  0  0
  3 17  1  0  0  0  0
  5  6  1  0  0  0  0
  7  6  1  6  0  0  0
  7  8  1  0  0  0  0
  7  9  1  0  0  0  0
 10  9  1  6  0  0  0
 10 11  1  0  0  0  0
 10 12  1  0  0  0  0
 11 16  1  0  0  0  0
 12 13  1  1  0  0  0
 12 14  1  0  0  0  0
 14 15  1  1  0  0  0
 14 16  1  0  0  0  0
 16 27  1  6  0  0  0
 18 19  2  0  0  0  0
 18 23  1  0  0  0  0
 19 20  1  0  0  0  0
 20 21  2  0  0  0  0
 21 22  1  0  0  0  0
 21 27  1  0  0  0  0
 22 23  2  0  0  0  0
 22 25  1  0  0  0  0
 23 24  1  0  0  0  0
 25 26  2  0  0  0  0
 26 27  1  0  0  0  0
M  END
>  <CHROM.1>
-154.48650426,-103.60738859,99.58454503,-31.65127397,-100.16680230,57.15967706
-58.29190325,47.70980977,-28.95578843,-102.69291426,-2.00610904,-0.00722168
2.59644233

>  <Name>
ligand

>  <RI>
0

>  <Rbt.Current_Directory>
/home/itssahil/PROJECTS/Mol_Feturizer/New_Systems/rnas/4L81

>  <Rbt.Executable>
rbdock ($Id: //depot/dev/client3/rdock/2013.1/src/exe/rbdock.cxx#4 $)

>  <Rbt.Library>
libRbt.so (2013.1, Build901 2013/11/27)

>  <Rbt.Parameter_File>
/export/apps/rDock/src/rDock_2013.1_src/data/scripts/dock_solv.prm

>  <Rbt.Receptor>
prm/pocket_docking_2.prm

>  <SCORE>
-8.48503

>  <SCORE.INTER>
-14.9727

>  <SCORE.INTER.CONST>
1

>  <SCORE.INTER.POLAR>
0

>  <SCORE.INTER.ROT>
7

>  <SCORE.INTER.SOLV>
15.121

>  <SCORE.INTER.VDW>
-23.2888

>  <SCORE.INTER.norm>
-0.554545

>  <SCORE.INTRA>
6.30304

>  <SCORE.INTRA.DIHEDRAL>
9.44661

>  <SCORE.INTRA.DIHEDRAL.0>
8.34559

>  <SCORE.INTRA.POLAR>
0

>  <SCORE.INTRA.POLAR.0>
0

>  <SCORE.INTRA.REPUL>
0

>  <SCORE.INTRA.REPUL.0>
0

>  <SCORE.INTRA.SOLV>
1.17572

>  <SCORE.INTRA.SOLV.lig_0>
-48.829

>  <SCORE.INTRA.VDW>
0.991878

>  <SCORE.INTRA.VDW.0>
-1.77092

>  <SCORE.INTRA.norm>
0.233446

>  <SCORE.RESTR>
0.184646

>  <SCORE.RESTR.CAVITY>
0.184646

>  <SCORE.RESTR.norm>
0.00683875

>  <SCORE.SYSTEM>
0

>  <SCORE.SYSTEM.CONST>
0

>  <SCORE.SYSTEM.DIHEDRAL>
0

>  <SCORE.SYSTEM.SOLV>
0

>  <SCORE.SYSTEM.norm>
0

>  <SCORE.heavy>
27

>  <SCORE.norm>
-0.31426

>  <RMSD>
2.048

$$$$
ligand
 OpenBabel11021811503D
libRbt.so/2013.1/901 2013/11/27
 27 29  0  0  0  0  0  0  0  0999 V2000
   46.6464  -27.5156 -106.6656 N   0  0  0  0  0  0  0  0  0  0  0  0
   47.7880  -26.5996 -106.7680 C   0  0  2  0  0  0  0  0  0  0  0  0
   48.5622  -26.8969 -108.0349 C   0  0  0  0  0  0  0  0  0  0  0  0
   49.0021  -28.0186 -108.2373 O   0  0  0  0  0  0  0  0  0  0  0  0
   48.7304  -26.7443 -105.5654 C   0  0  0  0  0  0  0  0  0  0  0  0
   47.9957  -26.4551 -104.2641 C   0  0  0  0  0  0  0  0  0  0  0  0
   49.0499  -26.6519 -102.7764 S   0  0  2  0  0  0  0  0  0  0  0  0
   50.5795  -25.7576 -103.2006 C   0  0  0  0  0  0  0  0  0  0  0  0
   49.5834  -28.3192 -103.1564 C   0  0  0  0  0  0  0  0  0  0  0  0
   50.1019  -29.0763 -101.9627 C   0  0  1  0  0  0  0  0  0  0  0  0
   49.1465  -28.9300 -100.8984 O   0  0  0  0  0  0  0  0  0  0  0  0
   50.0210  -30.4806 -102.4088 C   0  0  1  0  0  0  0  0  0  0  0  0
   51.2980  -30.9079 -102.8802 O   0  0  0  0  0  0  0  0  0  0  0  0
   49.6757  -31.2022 -101.1430 C   0  0  1  0  0  0  0  0  0  0  0  0
   50.8748  -31.5470 -100.4188 O   0  0  0  0  0  0  0  0  0  0  0  0
   48.8173  -30.2100 -100.3023 C   0  0  2  0  0  0  0  0  0  0  0  0
   48.7241  -26.0305 -108.8764 O   0  0  0  0  0  0  0  0  0  0  0  0
   44.5156  -31.8642 -102.9399 N   0  0  0  0  0  0  0  0  0  0  0  0
   45.8121  -31.9715 -103.3211 C   0  0  0  0  0  0  0  0  0  0  0  0
   46.8213  -31.5448 -102.5333 N   0  0  0  0  0  0  0  0  0  0  0  0
   46.5663  -30.9144 -101.3752 C   0  0  0  0  0  0  0  0  0  0  0  0
   45.1983  -30.7415 -100.9497 C   0  0  0  0  0  0  0  0  0  0  0  0
   44.1644  -31.2571 -101.7866 C   0  0  0  0  0  0  0  0  0  0  0  0
   42.8353  -31.1349 -101.4355 N   0  0  0  0  0  0  0  0  0  0  0  0
   45.2236  -30.0876  -99.7824 N   0  0  0  0  0  0  0  0  0  0  0  0
   46.4593  -29.8405  -99.4637 C   0  0  0  0  0  0  0  0  0  0  0  0
   47.3338  -30.3330 -100.4041 N   0  0  0  0  0  0  0  0  0  0  0  0
  2  1  1  1  0  0  0
  2  3  1  0  0  0  0
  2  5  1  0  0  0  0
  3  4  1  0  0  0  0
  3 17  1  0  0  0  0
  5  6  1  0  0  0  0
  7  6  1  6  0  0  0
  7  8  1  0  0  0  0
  7  9  1  0  0  0  0
 10  9  1  6  0  0  0
 10 11  1  0  0  0  0
 10 12  1  0  0  0  0
 11 16  1  0  0  0  0
 12 13  1  1  0  0  0
 12 14  1  0  0  0  0
 14 15  1  1  0  0  0
 14 16  1  0  0  0  0
 16 27  1  6  0  0  0
 18 19  2  0  0  0  0
 18 23  1  0  0  0  0
 19 20  1  0  0  0  0
 20 21  2  0  0  0  0
 21 22  1  0  0  0  0
 21 27  1  0  0  0  0
 22 23  2  0  0  0  0
 22 25  1  0  0  0  0
 23 24  1  0  0  0  0
 25 26  2  0  0  0  0
 26 27  1  0  0  0  0
M  END
>  <CHROM.1>
-56.53201348,-59.16860631,178.48215789,47.13100241,-159.85072867,48.86384383
92.89309974,47.98239983,-29.12756053,-103.06417764,1.23806077,-0.31355999
-1.03660508

>  <Name>
ligand

>  <RI>
0

>  <Rbt.Current_Directory>
/home/itssahil/PROJECTS/Mol_Feturizer/New_Systems/rnas/4L81

>  <Rbt.Executable>
rbdock ($Id: //depot/dev/client3/rdock/2013.1/src/exe/rbdock.cxx#4 $)

>  <Rbt.Library>
libRbt.so (2013.1, Build901 2013/11/27)

>  <Rbt.Parameter_File>
/export/apps/rDock/src/rDock_2013.1_src/data/scripts/dock_solv.prm

>  <Rbt.Receptor>
prm/pocket_docking_5.prm

>  <SCORE>
-16.4194

>  <SCORE.INTER>
-15.2297

>  <SCORE.INTER.CONST>
1

>  <SCORE.INTER.POLAR>
0

>  <SCORE.INTER.ROT>
7

>  <SCORE.INTER.SOLV>
17.0335

>  <SCORE.INTER.VDW>
-24.0977

>  <SCORE.INTER.norm>
-0.564064

>  <SCORE.INTRA>
-1.18965

>  <SCORE.INTRA.DIHEDRAL>
-2.70755

>  <SCORE.INTRA.DIHEDRAL.0>
8.34559

>  <SCORE.INTRA.POLAR>
0

>  <SCORE.INTRA.POLAR.0>
0

>  <SCORE.INTRA.REPUL>
0

>  <SCORE.INTRA.REPUL.0>
0

>  <SCORE.INTRA.SOLV>
-0.544371

>  <SCORE.INTRA.SOLV.lig_0>
-48.829

>  <SCORE.INTRA.VDW>
0.436311

>  <SCORE.INTRA.VDW.0>
-1.77092

>  <SCORE.INTRA.norm>
-0.0440612

>  <SCORE.RESTR>
0

>  <SCORE.RESTR.CAVITY>
0

>  <SCORE.RESTR.norm>
0

>  <SCORE.SYSTEM>
0

>  <SCORE.SYSTEM.CONST>
0

>  <SCORE.SYSTEM.DIHEDRAL>
0

>  <SCORE.SYSTEM.SOLV>
0

>  <SCORE.SYSTEM.norm>
0

>  <SCORE.heavy>
27

>  <SCORE.norm>
-0.608126

>  <RMSD>
2.260

$$$$
ligand
 OpenBabel11021811503D
libRbt.so/2013.1/901 2013/11/27
 27 29  0  0  0  0  0  0  0  0999 V2000
   46.5086  -25.9718 -106.7750 N   0  0  0  0  0  0  0  0  0  0  0  0
   47.5912  -25.0252 -106.4838 C   0  0  2  0  0  0  0  0  0  0  0  0
   48.7616  -25.2973 -107.4052 C   0  0  0  0  0  0  0  0  0  0  0  0
   48.7221  -26.2340 -108.1887 O   0  0  0  0  0  0  0  0  0  0  0  0
   48.0657  -25.1489 -105.0296 C   0  0  0  0  0  0  0  0  0  0  0  0
   48.5403  -26.5645 -104.7335 C   0  0  0  0  0  0  0  0  0  0  0  0
   49.1545  -26.7803 -103.0190 S   0  0  2  0  0  0  0  0  0  0  0  0
   50.7730  -25.9436 -103.0239 C   0  0  0  0  0  0  0  0  0  0  0  0
   49.7093  -28.4690 -103.2405 C   0  0  0  0  0  0  0  0  0  0  0  0
   50.2077  -29.1140 -101.9746 C   0  0  1  0  0  0  0  0  0  0  0  0
   49.2165  -28.9068 -100.9540 O   0  0  0  0  0  0  0  0  0  0  0  0
   50.1731  -30.5513 -102.3072 C   0  0  1  0  0  0  0  0  0  0  0  0
   51.4736  -30.9825 -102.7049 O   0  0  0  0  0  0  0  0  0  0  0  0
   49.8052  -31.1771 -100.9976 C   0  0  1  0  0  0  0  0  0  0  0  0
   50.9888  -31.4318 -100.2130 O   0  0  0  0  0  0  0  0  0  0  0  0
   48.8984  -30.1426 -100.2657 C   0  0  2  0  0  0  0  0  0  0  0  0
   49.7365  -24.5663 -107.3962 O   0  0  0  0  0  0  0  0  0  0  0  0
   44.7055  -31.8684 -103.0296 N   0  0  0  0  0  0  0  0  0  0  0  0
   46.0120  -31.9238 -103.3871 C   0  0  0  0  0  0  0  0  0  0  0  0
   46.9911  -31.4846 -102.5688 N   0  0  0  0  0  0  0  0  0  0  0  0
   46.6931  -30.8924 -101.4009 C   0  0  0  0  0  0  0  0  0  0  0  0
   45.3122  -30.7749 -100.9989 C   0  0  0  0  0  0  0  0  0  0  0  0
   44.3122  -31.3025 -101.8690 C   0  0  0  0  0  0  0  0  0  0  0  0
   42.9732  -31.2326 -101.5418 N   0  0  0  0  0  0  0  0  0  0  0  0
   45.2933  -30.1504  -99.8155 N   0  0  0  0  0  0  0  0  0  0  0  0
   46.5137  -29.8714  -99.4660 C   0  0  0  0  0  0  0  0  0  0  0  0
   47.4220  -30.3112 -100.4004 N   0  0  0  0  0  0  0  0  0  0  0  0
  2  1  1  6  0  0  0
  2  3  1  0  0  0  0
  2  5  1  0  0  0  0
  3  4  1  0  0  0  0
  3 17  1  0  0  0  0
  5  6  1  0  0  0  0
  7  6  1  6  0  0  0
  7  8  1  0  0  0  0
  7  9  1  0  0  0  0
 10  9  1  6  0  0  0
 10 11  1  0  0  0  0
 10 12  1  0  0  0  0
 11 16  1  0  0  0  0
 12 13  1  1  0  0  0
 12 14  1  0  0  0  0
 14 15  1  1  0  0  0
 14 16  1  0  0  0  0
 16 27  1  6  0  0  0
 18 19  2  0  0  0  0
 18 23  1  0  0  0  0
 19 20  1  0  0  0  0
 20 21  2  0  0  0  0
 21 22  1  0  0  0  0
 21 27  1  0  0  0  0
 22 23  2  0  0  0  0
 22 25  1  0  0  0  0
 23 24  1  0  0  0  0
 25 26  2  0  0  0  0
 26 27  1  0  0  0  0
M  END
>  <CHROM.1>
-3.19953467,58.03039486,178.87100215,-73.97813281,-174.95572441,49.94559559
86.76600514,48.09695597,-28.80909832,-102.98425184,1.30119810,-0.22210718
-0.82046569

>  <Name>
ligand

>  <RI>
0

>  <Rbt.Current_Directory>
/home/itssahil/PROJECTS/Mol_Feturizer/New_Systems/rnas/4L81

>  <Rbt.Executable>
rbdock ($Id: //depot/dev/client3/rdock/2013.1/src/exe/rbdock.cxx#4 $)

>  <Rbt.Library>
libRbt.so (2013.1, Build901 2013/11/27)

>  <Rbt.Parameter_File>
/export/apps/rDock/src/rDock_2013.1_src/data/scripts/dock_solv.prm

>  <Rbt.Receptor>
prm/pocket_docking_4.prm

>  <SCORE>
-16.3263

>  <SCORE.INTER>
-13.4211

>  <SCORE.INTER.CONST>
1

>  <SCORE.INTER.POLAR>
0

>  <SCORE.INTER.ROT>
7

>  <SCORE.INTER.SOLV>
17.2134

>  <SCORE.INTER.VDW>
-22.9519

>  <SCORE.INTER.norm>
-0.49708

>  <SCORE.INTRA>
-2.90514

>  <SCORE.INTRA.DIHEDRAL>
-4.22037

>  <SCORE.INTRA.DIHEDRAL.0>
8.34559

>  <SCORE.INTRA.POLAR>
0

>  <SCORE.INTRA.POLAR.0>
0

>  <SCORE.INTRA.REPUL>
0

>  <SCORE.INTRA.REPUL.0>
0

>  <SCORE.INTRA.SOLV>
-0.564903

>  <SCORE.INTRA.SOLV.lig_0>
-48.829

>  <SCORE.INTRA.VDW>
-0.512508

>  <SCORE.INTRA.VDW.0>
-1.77092

>  <SCORE.INTRA.norm>
-0.107598

>  <SCORE.RESTR>
0

>  <SCORE.RESTR.CAVITY>
0

>  <SCORE.RESTR.norm>
0

>  <SCORE.SYSTEM>
0

>  <SCORE.SYSTEM.CONST>
0

>  <SCORE.SYSTEM.DIHEDRAL>
0

>  <SCORE.SYSTEM.SOLV>
0

>  <SCORE.SYSTEM.norm>
0

>  <SCORE.heavy>
27

>  <SCORE.norm>
-0.604677

>  <RMSD>
2.327

$$$$
ligand
 OpenBabel11021811503D
libRbt.so/2013.1/901 2013/11/27
 27 29  0  0  0  0  0  0  0  0999 V2000
   46.5100  -25.4602 -106.8601 N   0  0  0  0  0  0  0  0  0  0  0  0
   47.6362  -24.6019 -106.4757 C   0  0  2  0  0  0  0  0  0  0  0  0
   48.8499  -24.9582 -107.3080 C   0  0  0  0  0  0  0  0  0  0  0  0
   48.7797  -25.8397 -108.1510 O   0  0  0  0  0  0  0  0  0  0  0  0
   47.9862  -24.7705 -104.9910 C   0  0  0  0  0  0  0  0  0  0  0  0
   48.3176  -26.2220 -104.6744 C   0  0  0  0  0  0  0  0  0  0  0  0
   48.9455  -26.4676 -102.9689 S   0  0  2  0  0  0  0  0  0  0  0  0
   50.5980  -25.7006 -102.9947 C   0  0  0  0  0  0  0  0  0  0  0  0
   49.4248  -28.1779 -103.2008 C   0  0  0  0  0  0  0  0  0  0  0  0
   49.9264  -28.8421 -101.9462 C   0  0  1  0  0  0  0  0  0  0  0  0
   48.9222  -28.6810 -100.9300 O   0  0  0  0  0  0  0  0  0  0  0  0
   49.9261  -30.2714 -102.3131 C   0  0  1  0  0  0  0  0  0  0  0  0
   51.2391  -30.6646 -102.7092 O   0  0  0  0  0  0  0  0  0  0  0  0
   49.5610  -30.9362 -101.0221 C   0  0  1  0  0  0  0  0  0  0  0  0
   50.7432  -31.1839 -100.2332 O   0  0  0  0  0  0  0  0  0  0  0  0
   48.6255  -29.9395 -100.2741 C   0  0  2  0  0  0  0  0  0  0  0  0
   49.8951  -24.3475 -107.1673 O   0  0  0  0  0  0  0  0  0  0  0  0
   44.5135  -31.9301 -102.9809 N   0  0  0  0  0  0  0  0  0  0  0  0
   45.8281  -31.9968 -103.3054 C   0  0  0  0  0  0  0  0  0  0  0  0
   46.7840  -31.4823 -102.5039 N   0  0  0  0  0  0  0  0  0  0  0  0
   46.4540  -30.8040 -101.3928 C   0  0  0  0  0  0  0  0  0  0  0  0
   45.0634  -30.6728 -101.0304 C   0  0  0  0  0  0  0  0  0  0  0  0
   44.0886  -31.2797 -101.8770 C   0  0  0  0  0  0  0  0  0  0  0  0
   42.7421  -31.2013 -101.5846 N   0  0  0  0  0  0  0  0  0  0  0  0
   45.0117  -29.9575  -99.9006 N   0  0  0  0  0  0  0  0  0  0  0  0
   46.2210  -29.6365  -99.5485 C   0  0  0  0  0  0  0  0  0  0  0  0
   47.1544  -30.1368 -100.4261 N   0  0  0  0  0  0  0  0  0  0  0  0
  2  1  1  6  0  0  0
  2  3  1  0  0  0  0
  2  5  1  0  0  0  0
  3  4  1  0  0  0  0
  3 17  1  0  0  0  0
  5  6  1  0  0  0  0
  7  6  1  6  0  0  0
  7  8  1  0  0  0  0
  7  9  1  0  0  0  0
 10  9  1  6  0  0  0
 10 11  1  0  0  0  0
 10 12  1  0  0  0  0
 11 16  1  0  0  0  0
 12 13  1  1  0  0  0
 12 14  1  0  0  0  0
 14 15  1  1  0  0  0
 14 16  1  0  0  0  0
 16 27  1  6  0  0  0
 18 19  2  0  0  0  0
 18 23  1  0  0  0  0
 19 20  1  0  0  0  0
 20 21  2  0  0  0  0
 21 22  1  0  0  0  0
 21 27  1  0  0  0  0
 22 23  2  0  0  0  0
 22 25  1  0  0  0  0
 23 24  1  0  0  0  0
 25 26  2  0  0  0  0
 26 27  1  0  0  0  0
M  END
>  <CHROM.1>
0.50309886,57.65198515,172.89009007,-70.17531289,-175.57202658,54.26194334
92.71969095,47.91961894,-28.58029920,-102.96572661,1.25079525,-0.24562950
-0.79957766

>  <Name>
ligand

>  <RI>
0

>  <Rbt.Current_Directory>
/home/itssahil/PROJECTS/Mol_Feturizer/New_Systems/rnas/4L81

>  <Rbt.Executable>
rbdock ($Id: //depot/dev/client3/rdock/2013.1/src/exe/rbdock.cxx#4 $)

>  <Rbt.Library>
libRbt.so (2013.1, Build901 2013/11/27)

>  <Rbt.Parameter_File>
/export/apps/rDock/src/rDock_2013.1_src/data/scripts/dock_solv.prm

>  <Rbt.Receptor>
prm/pocket_docking_4.prm

>  <SCORE>
-16.05

>  <SCORE.INTER>
-13.1471

>  <SCORE.INTER.CONST>
1

>  <SCORE.INTER.POLAR>
0

>  <SCORE.INTER.ROT>
7

>  <SCORE.INTER.SOLV>
17.4107

>  <SCORE.INTER.VDW>
-22.8349

>  <SCORE.INTER.norm>
-0.486928

>  <SCORE.INTRA>
-2.90293

>  <SCORE.INTRA.DIHEDRAL>
-4.35573

>  <SCORE.INTRA.DIHEDRAL.0>
8.34559

>  <SCORE.INTRA.POLAR>
0

>  <SCORE.INTRA.POLAR.0>
0

>  <SCORE.INTRA.REPUL>
0

>  <SCORE.INTRA.REPUL.0>
0

>  <SCORE.INTRA.SOLV>
-0.579551

>  <SCORE.INTRA.SOLV.lig_0>
-48.829

>  <SCORE.INTRA.VDW>
-0.435288

>  <SCORE.INTRA.VDW.0>
-1.77092

>  <SCORE.INTRA.norm>
-0.107516

>  <SCORE.RESTR>
0

>  <SCORE.RESTR.CAVITY>
0

>  <SCORE.RESTR.norm>
0

>  <SCORE.SYSTEM>
0

>  <SCORE.SYSTEM.CONST>
0

>  <SCORE.SYSTEM.DIHEDRAL>
0

>  <SCORE.SYSTEM.SOLV>
0

>  <SCORE.SYSTEM.norm>
0

>  <SCORE.heavy>
27

>  <SCORE.norm>
-0.594444

>  <RMSD>
2.408

$$$$
ligand
 OpenBabel11021811503D
libRbt.so/2013.1/901 2013/11/27
 27 29  0  0  0  0  0  0  0  0999 V2000
   48.6467  -25.0782 -107.7238 N   0  0  0  0  0  0  0  0  0  0  0  0
   48.6478  -26.5447 -107.7710 C   0  0  2  0  0  0  0  0  0  0  0  0
   47.4938  -27.0235 -108.6265 C   0  0  0  0  0  0  0  0  0  0  0  0
   47.6390  -27.9773 -109.3760 O   0  0  0  0  0  0  0  0  0  0  0  0
   48.5086  -27.1491 -106.3672 C   0  0  0  0  0  0  0  0  0  0  0  0
   49.7039  -26.7825 -105.4990 C   0  0  0  0  0  0  0  0  0  0  0  0
   49.4295  -27.1022 -103.7141 S   0  0  2  0  0  0  0  0  0  0  0  0
   50.8557  -26.3110 -102.9020 C   0  0  0  0  0  0  0  0  0  0  0  0
   50.0232  -28.7920 -103.7432 C   0  0  0  0  0  0  0  0  0  0  0  0
   50.5427  -29.2746 -102.4151 C   0  0  1  0  0  0  0  0  0  0  0  0
   49.5615  -28.9536 -101.4145 O   0  0  0  0  0  0  0  0  0  0  0  0
   50.5185  -30.7419 -102.5707 C   0  0  1  0  0  0  0  0  0  0  0  0
   51.8185  -31.2071 -102.9299 O   0  0  0  0  0  0  0  0  0  0  0  0
   50.1722  -31.2074 -101.1904 C   0  0  1  0  0  0  0  0  0  0  0  0
   51.3674  -31.3552 -100.3960 O   0  0  0  0  0  0  0  0  0  0  0  0
   49.2638  -30.0995 -100.5776 C   0  0  2  0  0  0  0  0  0  0  0  0
   46.4040  -26.4837 -108.5502 O   0  0  0  0  0  0  0  0  0  0  0  0
   45.0105  -31.7155 -103.3155 N   0  0  0  0  0  0  0  0  0  0  0  0
   46.3035  -31.7091 -103.7229 C   0  0  0  0  0  0  0  0  0  0  0  0
   47.3024  -31.3089 -102.9085 N   0  0  0  0  0  0  0  0  0  0  0  0
   47.0351  -30.8167 -101.6880 C   0  0  0  0  0  0  0  0  0  0  0  0
   45.6680  -30.7666 -101.2287 C   0  0  0  0  0  0  0  0  0  0  0  0
   44.6484  -31.2513 -102.1008 C   0  0  0  0  0  0  0  0  0  0  0  0
   43.3215  -31.2417 -101.7214 N   0  0  0  0  0  0  0  0  0  0  0  0
   45.6795  -30.2360 -100.0002 N   0  0  0  0  0  0  0  0  0  0  0  0
   46.9054  -29.9531  -99.6740 C   0  0  0  0  0  0  0  0  0  0  0  0
   47.7877  -30.2957 -100.6720 N   0  0  0  0  0  0  0  0  0  0  0  0
  2  1  1  1  0  0  0
  2  3  1  0  0  0  0
  2  5  1  0  0  0  0
  3  4  1  0  0  0  0
  3 17  1  0  0  0  0
  5  6  1  0  0  0  0
  7  6  1  6  0  0  0
  7  8  1  0  0  0  0
  7  9  1  0  0  0  0
 10  9  1  6  0  0  0
 10 11  1  0  0  0  0
 10 12  1  0  0  0  0
 11 16  1  0  0  0  0
 12 13  1  1  0  0  0
 12 14  1  0  0  0  0
 14 15  1  1  0  0  0
 14 16  1  0  0  0  0
 16 27  1  6  0  0  0
 18 19  2  0  0  0  0
 18 23  1  0  0  0  0
 19 20  1  0  0  0  0
 20 21  2  0  0  0  0
 21 22  1  0  0  0  0
 21 27  1  0  0  0  0
 22 23  2  0  0  0  0
 22 25  1  0  0  0  0
 23 24  1  0  0  0  0
 25 26  2  0  0  0  0
 26 27  1  0  0  0  0
M  END
>  <CHROM.1>
140.89737418,-63.52676549,165.69329749,-170.14330247,154.60962761,48.99832089
75.23308069,48.28902609,-29.16483406,-103.50171050,-1.48592405,0.28866912
2.12698461

>  <Name>
ligand

>  <RI>
0

>  <Rbt.Current_Directory>
/home/itssahil/PROJECTS/Mol_Feturizer/New_Systems/rnas/4L81

>  <Rbt.Executable>
rbdock ($Id: //depot/dev/client3/rdock/2013.1/src/exe/rbdock.cxx#4 $)

>  <Rbt.Library>
libRbt.so (2013.1, Build901 2013/11/27)

>  <Rbt.Parameter_File>
/export/apps/rDock/src/rDock_2013.1_src/data/scripts/dock_solv.prm

>  <Rbt.Receptor>
prm/pocket_docking_5.prm

>  <SCORE>
-16.1655

>  <SCORE.INTER>
-14.3727

>  <SCORE.INTER.CONST>
1

>  <SCORE.INTER.POLAR>
0

>  <SCORE.INTER.ROT>
7

>  <SCORE.INTER.SOLV>
17.0937

>  <SCORE.INTER.VDW>
-23.5463

>  <SCORE.INTER.norm>
-0.532321

>  <SCORE.INTRA>
-1.79689

>  <SCORE.INTRA.DIHEDRAL>
-2.0642

>  <SCORE.INTRA.DIHEDRAL.0>
8.34559

>  <SCORE.INTRA.POLAR>
0

>  <SCORE.INTRA.POLAR.0>
0

>  <SCORE.INTRA.REPUL>
0

>  <SCORE.INTRA.REPUL.0>
0

>  <SCORE.INTRA.SOLV>
-0.534443

>  <SCORE.INTRA.SOLV.lig_0>
-48.829

>  <SCORE.INTRA.VDW>
-0.497576

>  <SCORE.INTRA.VDW.0>
-1.77092

>  <SCORE.INTRA.norm>
-0.0665517

>  <SCORE.RESTR>
0.00401536

>  <SCORE.RESTR.CAVITY>
0.00401536

>  <SCORE.RESTR.norm>
0.000148717

>  <SCORE.SYSTEM>
0

>  <SCORE.SYSTEM.CONST>
0

>  <SCORE.SYSTEM.DIHEDRAL>
0

>  <SCORE.SYSTEM.SOLV>
0

>  <SCORE.SYSTEM.norm>
0

>  <SCORE.heavy>
27

>  <SCORE.norm>
-0.598724

>  <RMSD>
2.426

$$$$
ligand
 OpenBabel11021811503D
libRbt.so/2013.1/901 2013/11/27
 27 29  0  0  0  0  0  0  0  0999 V2000
   48.9497  -27.2991 -108.0911 N   0  0  0  0  0  0  0  0  0  0  0  0
   48.3082  -26.5646 -106.9949 C   0  0  2  0  0  0  0  0  0  0  0  0
   48.3122  -25.0833 -107.3088 C   0  0  0  0  0  0  0  0  0  0  0  0
   47.3633  -24.3844 -106.9866 O   0  0  0  0  0  0  0  0  0  0  0  0
   49.0411  -26.7918 -105.6657 C   0  0  0  0  0  0  0  0  0  0  0  0
   48.1864  -26.3361 -104.4915 C   0  0  0  0  0  0  0  0  0  0  0  0
   49.0206  -26.5270 -102.8695 S   0  0  2  0  0  0  0  0  0  0  0  0
   50.6540  -25.7605 -103.1229 C   0  0  0  0  0  0  0  0  0  0  0  0
   49.4751  -28.2437 -103.1049 C   0  0  0  0  0  0  0  0  0  0  0  0
   49.9233  -28.9304 -101.8421 C   0  0  1  0  0  0  0  0  0  0  0  0
   48.8837  -28.7731 -100.8616 O   0  0  0  0  0  0  0  0  0  0  0  0
   49.9227  -30.3544 -102.2293 C   0  0  1  0  0  0  0  0  0  0  0  0
   51.2456  -30.7555 -102.5820 O   0  0  0  0  0  0  0  0  0  0  0  0
   49.5033  -31.0333 -100.9623 C   0  0  1  0  0  0  0  0  0  0  0  0
   50.6530  -31.3041 -100.1338 O   0  0  0  0  0  0  0  0  0  0  0  0
   48.5505  -30.0375 -100.2352 C   0  0  2  0  0  0  0  0  0  0  0  0
   49.2739  -24.5711 -107.8544 O   0  0  0  0  0  0  0  0  0  0  0  0
   44.5256  -32.0431 -103.0594 N   0  0  0  0  0  0  0  0  0  0  0  0
   45.8515  -32.1381 -103.3255 C   0  0  0  0  0  0  0  0  0  0  0  0
   46.7808  -31.6153 -102.4984 N   0  0  0  0  0  0  0  0  0  0  0  0
   46.4149  -30.9014 -101.4214 C   0  0  0  0  0  0  0  0  0  0  0  0
   45.0124  -30.7398 -101.1224 C   0  0  0  0  0  0  0  0  0  0  0  0
   44.0648  -31.3559 -101.9929 C   0  0  0  0  0  0  0  0  0  0  0  0
   42.7086  -31.2497 -101.7604 N   0  0  0  0  0  0  0  0  0  0  0  0
   44.9243  -29.9924 -100.0158 N   0  0  0  0  0  0  0  0  0  0  0  0
   46.1226  -29.6793  -99.6215 C   0  0  0  0  0  0  0  0  0  0  0  0
   47.0842  -30.2176 -100.4444 N   0  0  0  0  0  0  0  0  0  0  0  0
  2  1  1  6  0  0  0
  2  3  1  0  0  0  0
  2  5  1  0  0  0  0
  3  4  1  0  0  0  0
  3 17  1  0  0  0  0
  5  6  1  0  0  0  0
  7  6  1  6  0  0  0
  7  8  1  0  0  0  0
  7  9  1  0  0  0  0
 10  9  1  6  0  0  0
 10 11  1  0  0  0  0
 10 12  1  0  0  0  0
 11 16  1  0  0  0  0
 12 13  1  1  0  0  0
 12 14  1  0  0  0  0
 14 15  1  1  0  0  0
 14 16  1  0  0  0  0
 16 27  1  6  0  0  0
 18 19  2  0  0  0  0
 18 23  1  0  0  0  0
 19 20  1  0  0  0  0
 20 21  2  0  0  0  0
 21 22  1  0  0  0  0
 21 27  1  0  0  0  0
 22 23  2  0  0  0  0
 22 25  1  0  0  0  0
 23 24  1  0  0  0  0
 25 26  2  0  0  0  0
 26 27  1  0  0  0  0
M  END
>  <CHROM.1>
143.52079773,-165.37117301,-178.13117290,49.40216900,-166.23695045,54.86628836
95.15599385,47.95083030,-28.80379678,-103.02087881,1.22816075,-0.29387440
-0.87531391

>  <Name>
ligand

>  <RI>
0

>  <Rbt.Current_Directory>
/home/itssahil/PROJECTS/Mol_Feturizer/New_Systems/rnas/4L81

>  <Rbt.Executable>
rbdock ($Id: //depot/dev/client3/rdock/2013.1/src/exe/rbdock.cxx#4 $)

>  <Rbt.Library>
libRbt.so (2013.1, Build901 2013/11/27)

>  <Rbt.Parameter_File>
/export/apps/rDock/src/rDock_2013.1_src/data/scripts/dock_solv.prm

>  <Rbt.Receptor>
prm/pocket_docking_5.prm

>  <SCORE>
-14.8424

>  <SCORE.INTER>
-13.066

>  <SCORE.INTER.CONST>
1

>  <SCORE.INTER.POLAR>
0

>  <SCORE.INTER.ROT>
7

>  <SCORE.INTER.SOLV>
19.5054

>  <SCORE.INTER.VDW>
-23.4791

>  <SCORE.INTER.norm>
-0.483926

>  <SCORE.INTRA>
-1.78845

>  <SCORE.INTRA.DIHEDRAL>
-3.00567

>  <SCORE.INTRA.DIHEDRAL.0>
8.34559

>  <SCORE.INTRA.POLAR>
0

>  <SCORE.INTRA.POLAR.0>
0

>  <SCORE.INTRA.REPUL>
0

>  <SCORE.INTRA.REPUL.0>
0

>  <SCORE.INTRA.SOLV>
-1.29719

>  <SCORE.INTRA.SOLV.lig_0>
-48.829

>  <SCORE.INTRA.VDW>
0.362978

>  <SCORE.INTRA.VDW.0>
-1.77092

>  <SCORE.INTRA.norm>
-0.0662389

>  <SCORE.RESTR>
0.0120354

>  <SCORE.RESTR.CAVITY>
0.0120354

>  <SCORE.RESTR.norm>
0.000445757

>  <SCORE.SYSTEM>
0

>  <SCORE.SYSTEM.CONST>
0

>  <SCORE.SYSTEM.DIHEDRAL>
0

>  <SCORE.SYSTEM.SOLV>
0

>  <SCORE.SYSTEM.norm>
0

>  <SCORE.heavy>
27

>  <SCORE.norm>
-0.549719

>  <RMSD>
2.446

$$$$
ligand
 OpenBabel11021811503D
libRbt.so/2013.1/901 2013/11/27
 27 29  0  0  0  0  0  0  0  0999 V2000
   48.4326  -24.4943 -108.0878 N   0  0  0  0  0  0  0  0  0  0  0  0
   48.9582  -25.7681 -107.5838 C   0  0  2  0  0  0  0  0  0  0  0  0
   48.2699  -26.9149 -108.2936 C   0  0  0  0  0  0  0  0  0  0  0  0
   47.0836  -26.8395 -108.5759 O   0  0  0  0  0  0  0  0  0  0  0  0
   48.7271  -25.9095 -106.0732 C   0  0  0  0  0  0  0  0  0  0  0  0
   49.3357  -27.2034 -105.5513 C   0  0  0  0  0  0  0  0  0  0  0  0
   49.2391  -27.3667 -103.7272 S   0  0  2  0  0  0  0  0  0  0  0  0
   50.6138  -26.3363 -103.1207 C   0  0  0  0  0  0  0  0  0  0  0  0
   50.0335  -28.9704 -103.6504 C   0  0  0  0  0  0  0  0  0  0  0  0
   50.4810  -29.3591 -102.2664 C   0  0  1  0  0  0  0  0  0  0  0  0
   49.4721  -28.9259 -101.3384 O   0  0  0  0  0  0  0  0  0  0  0  0
   50.4109  -30.8327 -102.3044 C   0  0  1  0  0  0  0  0  0  0  0  0
   51.7070  -31.3674 -102.5682 O   0  0  0  0  0  0  0  0  0  0  0  0
   49.9924  -31.1722 -100.9074 C   0  0  1  0  0  0  0  0  0  0  0  0
   51.1483  -31.2929 -100.0526 O   0  0  0  0  0  0  0  0  0  0  0  0
   49.0999  -29.9892 -100.4258 C   0  0  2  0  0  0  0  0  0  0  0  0
   48.8996  -27.9064 -108.6180 O   0  0  0  0  0  0  0  0  0  0  0  0
   44.9210  -32.0053 -103.0084 N   0  0  0  0  0  0  0  0  0  0  0  0
   46.2325  -32.1383 -103.3250 C   0  0  0  0  0  0  0  0  0  0  0  0
   47.2059  -31.6070 -102.5561 N   0  0  0  0  0  0  0  0  0  0  0  0
   46.8997  -30.8478 -101.4915 C   0  0  0  0  0  0  0  0  0  0  0  0
   45.5144  -30.6454 -101.1413 C   0  0  0  0  0  0  0  0  0  0  0  0
   44.5191  -31.2712 -101.9494 C   0  0  0  0  0  0  0  0  0  0  0  0
   43.1762  -31.1275 -101.6656 N   0  0  0  0  0  0  0  0  0  0  0  0
   45.4877  -29.8578 -100.0597 N   0  0  0  0  0  0  0  0  0  0  0  0
   46.7075  -29.5571  -99.7263 C   0  0  0  0  0  0  0  0  0  0  0  0
   47.6228  -30.1447 -100.5680 N   0  0  0  0  0  0  0  0  0  0  0  0
  2  1  1  6  0  0  0
  2  3  1  0  0  0  0
  2  5  1  0  0  0  0
  3  4  1  0  0  0  0
  3 17  1  0  0  0  0
  5  6  1  0  0  0  0
  7  6  1  6  0  0  0
  7  8  1  0  0  0  0
  7  9  1  0  0  0  0
 10  9  1  6  0  0  0
 10 11  1  0  0  0  0
 10 12  1  0  0  0  0
 11 16  1  0  0  0  0
 12 13  1  1  0  0  0
 12 14  1  0  0  0  0
 14 15  1  1  0  0  0
 14 16  1  0  0  0  0
 16 27  1  6  0  0  0
 18 19  2  0  0  0  0
 18 23  1  0  0  0  0
 19 20  1  0  0  0  0
 20 21  2  0  0  0  0
 21 22  1  0  0  0  0
 21 27  1  0  0  0  0
 22 23  2  0  0  0  0
 22 25  1  0  0  0  0
 23 24  1  0  0  0  0
 25 26  2  0  0  0  0
 26 27  1  0  0  0  0
M  END
>  <CHROM.1>
-37.24829630,-177.27230003,174.52450460,-79.63725028,165.45787343,39.02709087
83.32969920,48.28498299,-29.12674783,-103.35410210,1.37848109,-0.23926451
-0.98470295

>  <Name>
ligand

>  <RI>
0

>  <Rbt.Current_Directory>
/home/itssahil/PROJECTS/Mol_Feturizer/New_Systems/rnas/4L81

>  <Rbt.Executable>
rbdock ($Id: //depot/dev/client3/rdock/2013.1/src/exe/rbdock.cxx#4 $)

>  <Rbt.Library>
libRbt.so (2013.1, Build901 2013/11/27)

>  <Rbt.Parameter_File>
/export/apps/rDock/src/rDock_2013.1_src/data/scripts/dock_solv.prm

>  <Rbt.Receptor>
prm/pocket_docking_7.prm

>  <SCORE>
-18.7975

>  <SCORE.INTER>
-16.1275

>  <SCORE.INTER.CONST>
1

>  <SCORE.INTER.POLAR>
0

>  <SCORE.INTER.ROT>
7

>  <SCORE.INTER.SOLV>
16.7258

>  <SCORE.INTER.VDW>
-24.5936

>  <SCORE.INTER.norm>
-0.597316

>  <SCORE.INTRA>
-2.67001

>  <SCORE.INTRA.DIHEDRAL>
-3.1271

>  <SCORE.INTRA.DIHEDRAL.0>
8.34559

>  <SCORE.INTRA.POLAR>
0

>  <SCORE.INTRA.POLAR.0>
0

>  <SCORE.INTRA.REPUL>
0

>  <SCORE.INTRA.REPUL.0>
0

>  <SCORE.INTRA.SOLV>
-1.21403

>  <SCORE.INTRA.SOLV.lig_0>
-48.829

>  <SCORE.INTRA.VDW>
-0.499447

>  <SCORE.INTRA.VDW.0>
-1.77092

>  <SCORE.INTRA.norm>
-0.0988893

>  <SCORE.RESTR>
0

>  <SCORE.RESTR.CAVITY>
0

>  <SCORE.RESTR.norm>
0

>  <SCORE.SYSTEM>
0

>  <SCORE.SYSTEM.CONST>
0

>  <SCORE.SYSTEM.DIHEDRAL>
0

>  <SCORE.SYSTEM.SOLV>
0

>  <SCORE.SYSTEM.norm>
0

>  <SCORE.heavy>
27

>  <SCORE.norm>
-0.696205

>  <RMSD>
2.549

$$$$
ligand
 OpenBabel11021811503D
libRbt.so/2013.1/901 2013/11/27
 27 29  0  0  0  0  0  0  0  0999 V2000
   48.4932  -27.9971 -108.1392 N   0  0  0  0  0  0  0  0  0  0  0  0
   47.7583  -27.1156 -107.2250 C   0  0  2  0  0  0  0  0  0  0  0  0
   48.4964  -25.8005 -107.0890 C   0  0  0  0  0  0  0  0  0  0  0  0
   49.7146  -25.7678 -107.1758 O   0  0  0  0  0  0  0  0  0  0  0  0
   47.6126  -27.7487 -105.8346 C   0  0  0  0  0  0  0  0  0  0  0  0
   48.9770  -28.0587 -105.2353 C   0  0  0  0  0  0  0  0  0  0  0  0
   48.8808  -28.8862 -103.6015 S   0  0  2  0  0  0  0  0  0  0  0  0
   48.3259  -27.5676 -102.4733 C   0  0  0  0  0  0  0  0  0  0  0  0
   50.6393  -28.8225 -103.2665 C   0  0  0  0  0  0  0  0  0  0  0  0
   51.0645  -29.6706 -102.0974 C   0  0  1  0  0  0  0  0  0  0  0  0
   50.1810  -29.3843 -101.0000 O   0  0  0  0  0  0  0  0  0  0  0  0
   50.7396  -31.0364 -102.5521 C   0  0  1  0  0  0  0  0  0  0  0  0
   51.9132  -31.6608 -103.0702 O   0  0  0  0  0  0  0  0  0  0  0  0
   50.3214  -31.7089 -101.2812 C   0  0  1  0  0  0  0  0  0  0  0  0
   51.4703  -32.2556 -100.6011 O   0  0  0  0  0  0  0  0  0  0  0  0
   49.6653  -30.6010 -100.4037 C   0  0  2  0  0  0  0  0  0  0  0  0
   47.8806  -24.7618 -106.9253 O   0  0  0  0  0  0  0  0  0  0  0  0
   45.0411  -31.7432 -102.7511 N   0  0  0  0  0  0  0  0  0  0  0  0
   46.2843  -32.1072 -103.1508 C   0  0  0  0  0  0  0  0  0  0  0  0
   47.3826  -31.7849 -102.4361 N   0  0  0  0  0  0  0  0  0  0  0  0
   47.2854  -31.0108 -101.3430 C   0  0  0  0  0  0  0  0  0  0  0  0
   45.9847  -30.5658 -100.9041 C   0  0  0  0  0  0  0  0  0  0  0  0
   44.8450  -30.9758 -101.6581 C   0  0  0  0  0  0  0  0  0  0  0  0
   43.5710  -30.5945 -101.2889 N   0  0  0  0  0  0  0  0  0  0  0  0
   46.1679  -29.8157  -99.8112 N   0  0  0  0  0  0  0  0  0  0  0  0
   47.4396  -29.7539  -99.5500 C   0  0  0  0  0  0  0  0  0  0  0  0
   48.1792  -30.4777 -100.4559 N   0  0  0  0  0  0  0  0  0  0  0  0
  2  1  1  6  0  0  0
  2  3  1  0  0  0  0
  2  5  1  0  0  0  0
  3  4  1  0  0  0  0
  3 17  1  0  0  0  0
  5  6  1  0  0  0  0
  7  6  1  6  0  0  0
  7  8  1  0  0  0  0
  7  9  1  0  0  0  0
 10  9  1  6  0  0  0
 10 11  1  0  0  0  0
 10 12  1  0  0  0  0
 11 16  1  0  0  0  0
 12 13  1  1  0  0  0
 12 14  1  0  0  0  0
 14 15  1  1  0  0  0
 14 16  1  0  0  0  0
 16 27  1  6  0  0  0
 18 19  2  0  0  0  0
 18 23  1  0  0  0  0
 19 20  1  0  0  0  0
 20 21  2  0  0  0  0
 21 22  1  0  0  0  0
 21 27  1  0  0  0  0
 22 23  2  0  0  0  0
 22 25  1  0  0  0  0
 23 24  1  0  0  0  0
 25 26  2  0  0  0  0
 26 27  1  0  0  0  0
M  END
>  <CHROM.1>
-31.41320016,58.44521417,-177.47471563,-72.23351865,-168.05898902,-48.52850271
99.29184515,48.41208380,-29.46660863,-103.08311341,1.48219209,0.03135186
-0.90425976

>  <Name>
ligand

>  <RI>
0

>  <Rbt.Current_Directory>
/home/itssahil/PROJECTS/Mol_Feturizer/New_Systems/rnas/4L81

>  <Rbt.Executable>
rbdock ($Id: //depot/dev/client3/rdock/2013.1/src/exe/rbdock.cxx#4 $)

>  <Rbt.Library>
libRbt.so (2013.1, Build901 2013/11/27)

>  <Rbt.Parameter_File>
/export/apps/rDock/src/rDock_2013.1_src/data/scripts/dock_solv.prm

>  <Rbt.Receptor>
prm/pocket_docking_4.prm

>  <SCORE>
-16.2581

>  <SCORE.INTER>
-12.7849

>  <SCORE.INTER.CONST>
1

>  <SCORE.INTER.POLAR>
0

>  <SCORE.INTER.ROT>
7

>  <SCORE.INTER.SOLV>
17.7097

>  <SCORE.INTER.VDW>
-22.6931

>  <SCORE.INTER.norm>
-0.473513

>  <SCORE.INTRA>
-3.47321

>  <SCORE.INTRA.DIHEDRAL>
-3.45014

>  <SCORE.INTRA.DIHEDRAL.0>
8.34559

>  <SCORE.INTRA.POLAR>
0

>  <SCORE.INTRA.POLAR.0>
0

>  <SCORE.INTRA.REPUL>
0

>  <SCORE.INTRA.REPUL.0>
0

>  <SCORE.INTRA.SOLV>
-0.261535

>  <SCORE.INTRA.SOLV.lig_0>
-48.829

>  <SCORE.INTRA.VDW>
-1.61737

>  <SCORE.INTRA.VDW.0>
-1.77092

>  <SCORE.INTRA.norm>
-0.128637

>  <SCORE.RESTR>
0

>  <SCORE.RESTR.CAVITY>
0

>  <SCORE.RESTR.norm>
0

>  <SCORE.SYSTEM>
0

>  <SCORE.SYSTEM.CONST>
0

>  <SCORE.SYSTEM.DIHEDRAL>
0

>  <SCORE.SYSTEM.SOLV>
0

>  <SCORE.SYSTEM.norm>
0

>  <SCORE.heavy>
27

>  <SCORE.norm>
-0.60215

>  <RMSD>
2.594

$$$$
ligand
 OpenBabel11021811503D
libRbt.so/2013.1/901 2013/11/27
 27 29  0  0  0  0  0  0  0  0999 V2000
   50.1557  -24.3260 -105.9527 N   0  0  0  0  0  0  0  0  0  0  0  0
   49.9173  -25.7519 -106.2028 C   0  0  2  0  0  0  0  0  0  0  0  0
   48.7304  -25.9108 -107.1295 C   0  0  0  0  0  0  0  0  0  0  0  0
   48.7779  -26.7027 -108.0587 O   0  0  0  0  0  0  0  0  0  0  0  0
   49.6326  -26.5083 -104.8982 C   0  0  0  0  0  0  0  0  0  0  0  0
   49.3068  -27.9684 -105.1790 C   0  0  0  0  0  0  0  0  0  0  0  0
   49.1094  -28.9735 -103.6577 S   0  0  2  0  0  0  0  0  0  0  0  0
   48.3141  -27.8343 -102.4790 C   0  0  0  0  0  0  0  0  0  0  0  0
   50.8071  -28.8041 -103.1118 C   0  0  0  0  0  0  0  0  0  0  0  0
   51.1666  -29.7069 -101.9617 C   0  0  1  0  0  0  0  0  0  0  0  0
   50.2472  -29.4419 -100.8887 O   0  0  0  0  0  0  0  0  0  0  0  0
   50.8291  -31.0458 -102.4823 C   0  0  1  0  0  0  0  0  0  0  0  0
   52.0078  -31.6778 -102.9791 O   0  0  0  0  0  0  0  0  0  0  0  0
   50.3461  -31.7566 -101.2561 C   0  0  1  0  0  0  0  0  0  0  0  0
   51.4546  -32.3568 -100.5544 O   0  0  0  0  0  0  0  0  0  0  0  0
   49.6810  -30.6680 -100.3613 C   0  0  2  0  0  0  0  0  0  0  0  0
   47.7083  -25.2759 -106.9369 O   0  0  0  0  0  0  0  0  0  0  0  0
   45.1097  -31.7257 -102.8478 N   0  0  0  0  0  0  0  0  0  0  0  0
   46.3556  -32.1281 -103.1997 C   0  0  0  0  0  0  0  0  0  0  0  0
   47.4374  -31.8234 -102.4528 N   0  0  0  0  0  0  0  0  0  0  0  0
   47.3240  -31.0303 -101.3750 C   0  0  0  0  0  0  0  0  0  0  0  0
   46.0215  -30.5450 -100.9871 C   0  0  0  0  0  0  0  0  0  0  0  0
   44.8974  -30.9368 -101.7733 C   0  0  0  0  0  0  0  0  0  0  0  0
   43.6222  -30.5169 -101.4533 N   0  0  0  0  0  0  0  0  0  0  0  0
   46.1877  -29.7831  -99.8995 N   0  0  0  0  0  0  0  0  0  0  0  0
   47.4511  -29.7504  -99.5962 C   0  0  0  0  0  0  0  0  0  0  0  0
   48.2013  -30.5070 -100.4658 N   0  0  0  0  0  0  0  0  0  0  0  0
  2  1  1  1  0  0  0
  2  3  1  0  0  0  0
  2  5  1  0  0  0  0
  3  4  1  0  0  0  0
  3 17  1  0  0  0  0
  5  6  1  0  0  0  0
  7  6  1  6  0  0  0
  7  8  1  0  0  0  0
  7  9  1  0  0  0  0
 10  9  1  6  0  0  0
 10 11  1  0  0  0  0
 10 12  1  0  0  0  0
 11 16  1  0  0  0  0
 12 13  1  1  0  0  0
 12 14  1  0  0  0  0
 14 15  1  1  0  0  0
 14 16  1  0  0  0  0
 16 27  1  6  0  0  0
 18 19  2  0  0  0  0
 18 23  1  0  0  0  0
 19 20  1  0  0  0  0
 20 21  2  0  0  0  0
 21 22  1  0  0  0  0
 21 27  1  0  0  0  0
 22 23  2  0  0  0  0
 22 25  1  0  0  0  0
 23 24  1  0  0  0  0
 25 26  2  0  0  0  0
 26 27  1  0  0  0  0
M  END
>  <CHROM.1>
135.93518022,176.67763646,174.58081820,36.00857822,-169.84031258,-56.19624300
102.41051321,48.64220584,-29.33086600,-102.97627576,-1.37493073,-0.00270919
2.34148212

>  <Name>
ligand

>  <RI>
0

>  <Rbt.Current_Directory>
/home/itssahil/PROJECTS/Mol_Feturizer/New_Systems/rnas/4L81

>  <Rbt.Executable>
rbdock ($Id: //depot/dev/client3/rdock/2013.1/src/exe/rbdock.cxx#4 $)

>  <Rbt.Library>
libRbt.so (2013.1, Build901 2013/11/27)

>  <Rbt.Parameter_File>
/export/apps/rDock/src/rDock_2013.1_src/data/scripts/dock_solv.prm

>  <Rbt.Receptor>
prm/pocket_docking_5.prm

>  <SCORE>
-15.8545

>  <SCORE.INTER>
-13.8165

>  <SCORE.INTER.CONST>
1

>  <SCORE.INTER.POLAR>
0

>  <SCORE.INTER.ROT>
7

>  <SCORE.INTER.SOLV>
17.4046

>  <SCORE.INTER.VDW>
-23.2792

>  <SCORE.INTER.norm>
-0.511723

>  <SCORE.INTRA>
-2.03798

>  <SCORE.INTRA.DIHEDRAL>
-3.469

>  <SCORE.INTRA.DIHEDRAL.0>
8.34559

>  <SCORE.INTRA.POLAR>
0

>  <SCORE.INTRA.POLAR.0>
0

>  <SCORE.INTRA.REPUL>
0

>  <SCORE.INTRA.REPUL.0>
0

>  <SCORE.INTRA.SOLV>
-0.968964

>  <SCORE.INTRA.SOLV.lig_0>
-48.829

>  <SCORE.INTRA.VDW>
0.180999

>  <SCORE.INTRA.VDW.0>
-1.77092

>  <SCORE.INTRA.norm>
-0.0754808

>  <SCORE.RESTR>
0

>  <SCORE.RESTR.CAVITY>
0

>  <SCORE.RESTR.norm>
0

>  <SCORE.SYSTEM>
0

>  <SCORE.SYSTEM.CONST>
0

>  <SCORE.SYSTEM.DIHEDRAL>
0

>  <SCORE.SYSTEM.SOLV>
0

>  <SCORE.SYSTEM.norm>
0

>  <SCORE.heavy>
27

>  <SCORE.norm>
-0.587204

>  <RMSD>
2.648

$$$$
ligand
 OpenBabel11021811503D
libRbt.so/2013.1/901 2013/11/27
 27 29  0  0  0  0  0  0  0  0999 V2000
   48.5781  -23.1588 -102.0447 N   0  0  0  0  0  0  0  0  0  0  0  0
   49.1666  -24.3035 -102.7490 C   0  0  2  0  0  0  0  0  0  0  0  0
   49.7427  -23.8415 -104.0710 C   0  0  0  0  0  0  0  0  0  0  0  0
   50.8274  -24.2587 -104.4479 O   0  0  0  0  0  0  0  0  0  0  0  0
   48.1196  -25.3929 -103.0179 C   0  0  0  0  0  0  0  0  0  0  0  0
   48.6942  -26.7754 -102.7436 C   0  0  0  0  0  0  0  0  0  0  0  0
   50.2056  -27.1392 -103.7166 S   0  0  2  0  0  0  0  0  0  0  0  0
   49.6567  -27.0013 -105.4484 C   0  0  0  0  0  0  0  0  0  0  0  0
   50.1115  -28.9185 -103.5318 C   0  0  0  0  0  0  0  0  0  0  0  0
   50.5849  -29.4142 -102.1912 C   0  0  1  0  0  0  0  0  0  0  0  0
   49.6264  -28.9988 -101.2035 O   0  0  0  0  0  0  0  0  0  0  0  0
   50.4476  -30.8779 -102.3194 C   0  0  1  0  0  0  0  0  0  0  0  0
   51.7094  -31.4494 -102.6609 O   0  0  0  0  0  0  0  0  0  0  0  0
   50.0589  -31.2884 -100.9329 C   0  0  1  0  0  0  0  0  0  0  0  0
   51.2348  -31.5131 -100.1278 O   0  0  0  0  0  0  0  0  0  0  0  0
   49.2361  -30.1018 -100.3473 C   0  0  2  0  0  0  0  0  0  0  0  0
   49.1157  -23.0774 -104.7836 O   0  0  0  0  0  0  0  0  0  0  0  0
   44.8920  -31.8445 -102.8553 N   0  0  0  0  0  0  0  0  0  0  0  0
   46.1858  -32.0284 -103.2162 C   0  0  0  0  0  0  0  0  0  0  0  0
   47.2055  -31.5658 -102.4630 N   0  0  0  0  0  0  0  0  0  0  0  0
   46.9672  -30.8256 -101.3681 C   0  0  0  0  0  0  0  0  0  0  0  0
   45.6040  -30.5700 -100.9694 C   0  0  0  0  0  0  0  0  0  0  0  0
   44.5567  -31.1247 -101.7638 C   0  0  0  0  0  0  0  0  0  0  0  0
   43.2311  -30.9277 -101.4343 N   0  0  0  0  0  0  0  0  0  0  0  0
   45.6465  -29.8148  -99.8655 N   0  0  0  0  0  0  0  0  0  0  0  0
   46.8884  -29.5808  -99.5618 C   0  0  0  0  0  0  0  0  0  0  0  0
   47.7497  -30.1846 -100.4479 N   0  0  0  0  0  0  0  0  0  0  0  0
  2  1  1  6  0  0  0
  2  3  1  0  0  0  0
  2  5  1  0  0  0  0
  3  4  1  0  0  0  0
  3 17  1  0  0  0  0
  5  6  1  0  0  0  0
  7  6  1  1  0  0  0
  7  8  1  0  0  0  0
  7  9  1  0  0  0  0
 10  9  1  6  0  0  0
 10 11  1  0  0  0  0
 10 12  1  0  0  0  0
 11 16  1  0  0  0  0
 12 13  1  1  0  0  0
 12 14  1  0  0  0  0
 14 15  1  1  0  0  0
 14 16  1  0  0  0  0
 16 27  1  6  0  0  0
 18 19  2  0  0  0  0
 18 23  1  0  0  0  0
 19 20  1  0  0  0  0
 20 21  2  0  0  0  0
 21 22  1  0  0  0  0
 21 27  1  0  0  0  0
 22 23  2  0  0  0  0
 22 25  1  0  0  0  0
 23 24  1  0  0  0  0
 25 26  2  0  0  0  0
 26 27  1  0  0  0  0
M  END
>  <CHROM.1>
137.71652915,-137.72250819,-56.86578498,-59.74169565,-78.10296778,69.53799454
85.31382125,48.54790875,-28.60450282,-102.33958398,1.17126393,0.10932382
-0.31993104

>  <Name>
ligand

>  <RI>
0

>  <Rbt.Current_Directory>
/home/itssahil/PROJECTS/Mol_Feturizer/New_Systems/rnas/4L81

>  <Rbt.Executable>
rbdock ($Id: //depot/dev/client3/rdock/2013.1/src/exe/rbdock.cxx#4 $)

>  <Rbt.Library>
libRbt.so (2013.1, Build901 2013/11/27)

>  <Rbt.Parameter_File>
/export/apps/rDock/src/rDock_2013.1_src/data/scripts/dock_solv.prm

>  <Rbt.Receptor>
prm/pocket_docking_6.prm

>  <SCORE>
-18.1354

>  <SCORE.INTER>
-16.3038

>  <SCORE.INTER.CONST>
1

>  <SCORE.INTER.POLAR>
0

>  <SCORE.INTER.ROT>
7

>  <SCORE.INTER.SOLV>
20.7992

>  <SCORE.INTER.VDW>
-26.0689

>  <SCORE.INTER.norm>
-0.603844

>  <SCORE.INTRA>
-1.83158

>  <SCORE.INTRA.DIHEDRAL>
0.533175

>  <SCORE.INTRA.DIHEDRAL.0>
8.34559

>  <SCORE.INTRA.POLAR>
0

>  <SCORE.INTRA.POLAR.0>
0

>  <SCORE.INTRA.REPUL>
0

>  <SCORE.INTRA.REPUL.0>
0

>  <SCORE.INTRA.SOLV>
-0.992041

>  <SCORE.INTRA.SOLV.lig_0>
-48.829

>  <SCORE.INTRA.VDW>
-1.60215

>  <SCORE.INTRA.VDW.0>
-1.77092

>  <SCORE.INTRA.norm>
-0.0678365

>  <SCORE.RESTR>
0

>  <SCORE.RESTR.CAVITY>
0

>  <SCORE.RESTR.norm>
0

>  <SCORE.SYSTEM>
0

>  <SCORE.SYSTEM.CONST>
0

>  <SCORE.SYSTEM.DIHEDRAL>
0

>  <SCORE.SYSTEM.SOLV>
0

>  <SCORE.SYSTEM.norm>
0

>  <SCORE.heavy>
27

>  <SCORE.norm>
-0.671681

>  <RMSD>
2.664

$$$$
ligand
 OpenBabel11021811503D
libRbt.so/2013.1/901 2013/11/27
 27 29  0  0  0  0  0  0  0  0999 V2000
   48.6632  -22.9762 -102.0980 N   0  0  0  0  0  0  0  0  0  0  0  0
   49.2304  -24.1572 -102.7585 C   0  0  2  0  0  0  0  0  0  0  0  0
   49.7978  -23.7593 -104.1049 C   0  0  0  0  0  0  0  0  0  0  0  0
   49.1636  -23.0233 -104.8457 O   0  0  0  0  0  0  0  0  0  0  0  0
   48.1676  -25.2439 -102.9698 C   0  0  0  0  0  0  0  0  0  0  0  0
   48.7388  -26.6240 -102.6765 C   0  0  0  0  0  0  0  0  0  0  0  0
   50.2422  -27.0096 -103.6534 S   0  0  2  0  0  0  0  0  0  0  0  0
   49.7004  -26.8279 -105.3834 C   0  0  0  0  0  0  0  0  0  0  0  0
   50.1024  -28.7888 -103.4994 C   0  0  0  0  0  0  0  0  0  0  0  0
   50.5694  -29.3204 -102.1705 C   0  0  1  0  0  0  0  0  0  0  0  0
   49.5942  -28.9520 -101.1805 O   0  0  0  0  0  0  0  0  0  0  0  0
   50.4563  -30.7811 -102.3473 C   0  0  1  0  0  0  0  0  0  0  0  0
   51.7303  -31.3220 -102.6932 O   0  0  0  0  0  0  0  0  0  0  0  0
   50.0595  -31.2423 -100.9791 C   0  0  1  0  0  0  0  0  0  0  0  0
   51.2303  -31.4751 -100.1688 O   0  0  0  0  0  0  0  0  0  0  0  0
   49.2122  -30.0880 -100.3646 C   0  0  2  0  0  0  0  0  0  0  0  0
   50.9032  -24.1421 -104.4458 O   0  0  0  0  0  0  0  0  0  0  0  0
   44.9239  -31.9144 -102.9087 N   0  0  0  0  0  0  0  0  0  0  0  0
   46.2246  -32.0870 -103.2499 C   0  0  0  0  0  0  0  0  0  0  0  0
   47.2283  -31.6027 -102.4889 N   0  0  0  0  0  0  0  0  0  0  0  0
   46.9662  -30.8520 -101.4067 C   0  0  0  0  0  0  0  0  0  0  0  0
   45.5948  -30.6082 -101.0296 C   0  0  0  0  0  0  0  0  0  0  0  0
   44.5652  -31.1853 -101.8309 C   0  0  0  0  0  0  0  0  0  0  0  0
   43.2329  -31.0004 -101.5218 N   0  0  0  0  0  0  0  0  0  0  0  0
   45.6132  -29.8389  -99.9347 N   0  0  0  0  0  0  0  0  0  0  0  0
   46.8480  -29.5860  -99.6173 C   0  0  0  0  0  0  0  0  0  0  0  0
   47.7284  -30.1902 -100.4842 N   0  0  0  0  0  0  0  0  0  0  0  0
  2  1  1  6  0  0  0
  2  3  1  0  0  0  0
  2  5  1  0  0  0  0
  3  4  1  0  0  0  0
  3 17  1  0  0  0  0
  5  6  1  0  0  0  0
  7  6  1  1  0  0  0
  7  8  1  0  0  0  0
  7  9  1  0  0  0  0
 10  9  1  6  0  0  0
 10 11  1  0  0  0  0
 10 12  1  0  0  0  0
 11 16  1  0  0  0  0
 12 13  1  1  0  0  0
 12 14  1  0  0  0  0
 14 15  1  1  0  0  0
 14 16  1  0  0  0  0
 16 27  1  6  0  0  0
 18 19  2  0  0  0  0
 18 23  1  0  0  0  0
 19 20  1  0  0  0  0
 20 21  2  0  0  0  0
 21 22  1  0  0  0  0
 21 27  1  0  0  0  0
 22 23  2  0  0  0  0
 22 25  1  0  0  0  0
 23 24  1  0  0  0  0
 25 26  2  0  0  0  0
 26 27  1  0  0  0  0
M  END
>  <CHROM.1>
-44.57523156,-139.16603868,-55.49714674,-57.39306859,-78.50800139,72.23344161
87.89211461,48.56584998,-28.54704864,-102.35437090,1.16681707,0.09173714
-0.31051537

>  <Name>
ligand

>  <RI>
0

>  <Rbt.Current_Directory>
/home/itssahil/PROJECTS/Mol_Feturizer/New_Systems/rnas/4L81

>  <Rbt.Executable>
rbdock ($Id: //depot/dev/client3/rdock/2013.1/src/exe/rbdock.cxx#4 $)

>  <Rbt.Library>
libRbt.so (2013.1, Build901 2013/11/27)

>  <Rbt.Parameter_File>
/export/apps/rDock/src/rDock_2013.1_src/data/scripts/dock_solv.prm

>  <Rbt.Receptor>
prm/pocket_docking_7.prm

>  <SCORE>
-18.1227

>  <SCORE.INTER>
-16.6537

>  <SCORE.INTER.CONST>
1

>  <SCORE.INTER.POLAR>
0

>  <SCORE.INTER.ROT>
7

>  <SCORE.INTER.SOLV>
20.3929

>  <SCORE.INTER.VDW>
-26.1668

>  <SCORE.INTER.norm>
-0.616805

>  <SCORE.INTRA>
-1.46898

>  <SCORE.INTRA.DIHEDRAL>
0.84981

>  <SCORE.INTRA.DIHEDRAL.0>
8.34559

>  <SCORE.INTRA.POLAR>
0

>  <SCORE.INTRA.POLAR.0>
0

>  <SCORE.INTRA.REPUL>
0

>  <SCORE.INTRA.REPUL.0>
0

>  <SCORE.INTRA.SOLV>
-0.999435

>  <SCORE.INTRA.SOLV.lig_0>
-48.829

>  <SCORE.INTRA.VDW>
-1.39417

>  <SCORE.INTRA.VDW.0>
-1.77092

>  <SCORE.INTRA.norm>
-0.0544066

>  <SCORE.RESTR>
0

>  <SCORE.RESTR.CAVITY>
0

>  <SCORE.RESTR.norm>
0

>  <SCORE.SYSTEM>
0

>  <SCORE.SYSTEM.CONST>
0

>  <SCORE.SYSTEM.DIHEDRAL>
0

>  <SCORE.SYSTEM.SOLV>
0

>  <SCORE.SYSTEM.norm>
0

>  <SCORE.heavy>
27

>  <SCORE.norm>
-0.671212

>  <RMSD>
2.709

$$$$
ligand
 OpenBabel11021811503D
libRbt.so/2013.1/901 2013/11/27
 27 29  0  0  0  0  0  0  0  0999 V2000
   47.8977  -24.6123 -104.4969 N   0  0  0  0  0  0  0  0  0  0  0  0
   48.3866  -25.9917 -104.6012 C   0  0  2  0  0  0  0  0  0  0  0  0
   47.2098  -26.9376 -104.7160 C   0  0  0  0  0  0  0  0  0  0  0  0
   46.0700  -26.5200 -104.5773 O   0  0  0  0  0  0  0  0  0  0  0  0
   49.2200  -26.3837 -103.3736 C   0  0  0  0  0  0  0  0  0  0  0  0
   48.3283  -26.5897 -102.1573 C   0  0  0  0  0  0  0  0  0  0  0  0
   47.8488  -28.3406 -101.8973 S   0  0  2  0  0  0  0  0  0  0  0  0
   46.7300  -28.2808 -100.4606 C   0  0  0  0  0  0  0  0  0  0  0  0
   49.3590  -28.8156 -101.0592 C   0  0  0  0  0  0  0  0  0  0  0  0
   49.9407  -30.1150 -101.5490 C   0  0  1  0  0  0  0  0  0  0  0  0
   48.9714  -31.1498 -101.3113 O   0  0  0  0  0  0  0  0  0  0  0  0
   49.9929  -29.9170 -103.0104 C   0  0  1  0  0  0  0  0  0  0  0  0
   51.3061  -29.5105 -103.3922 O   0  0  0  0  0  0  0  0  0  0  0  0
   49.7111  -31.2916 -103.5328 C   0  0  1  0  0  0  0  0  0  0  0  0
   50.9341  -32.0499 -103.6359 O   0  0  0  0  0  0  0  0  0  0  0  0
   48.7604  -31.9601 -102.4949 C   0  0  2  0  0  0  0  0  0  0  0  0
   47.3874  -28.1139 -104.9799 O   0  0  0  0  0  0  0  0  0  0  0  0
   43.8387  -30.7335 -100.9232 N   0  0  0  0  0  0  0  0  0  0  0  0
   44.9868  -30.6223 -100.2109 C   0  0  0  0  0  0  0  0  0  0  0  0
   46.1867  -30.9311 -100.7456 N   0  0  0  0  0  0  0  0  0  0  0  0
   46.2728  -31.4468 -101.9826 C   0  0  0  0  0  0  0  0  0  0  0  0
   45.0710  -31.6211 -102.7621 C   0  0  0  0  0  0  0  0  0  0  0  0
   43.8293  -31.2299 -102.1784 C   0  0  0  0  0  0  0  0  0  0  0  0
   42.6431  -31.3601 -102.8716 N   0  0  0  0  0  0  0  0  0  0  0  0
   45.4313  -32.1497 -103.9374 N   0  0  0  0  0  0  0  0  0  0  0  0
   46.7198  -32.3207 -103.9460 C   0  0  0  0  0  0  0  0  0  0  0  0
   47.2953  -31.8985 -102.7703 N   0  0  0  0  0  0  0  0  0  0  0  0
  2  1  1  1  0  0  0
  2  3  1  0  0  0  0
  2  5  1  0  0  0  0
  3  4  1  0  0  0  0
  3 17  1  0  0  0  0
  5  6  1  0  0  0  0
  7  6  1  1  0  0  0
  7  8  1  0  0  0  0
  7  9  1  0  0  0  0
 10  9  1  1  0  0  0
 10 11  1  0  0  0  0
 10 12  1  0  0  0  0
 11 16  1  0  0  0  0
 12 13  1  1  0  0  0
 12 14  1  0  0  0  0
 14 15  1  1  0  0  0
 14 16  1  0  0  0  0
 16 27  1  6  0  0  0
 18 19  2  0  0  0  0
 18 23  1  0  0  0  0
 19 20  1  0  0  0  0
 20 21  2  0  0  0  0
 21 22  1  0  0  0  0
 21 27  1  0  0  0  0
 22 23  2  0  0  0  0
 22 25  1  0  0  0  0
 23 24  1  0  0  0  0
 25 26  2  0  0  0  0
 26 27  1  0  0  0  0
M  END
>  <CHROM.1>
-7.34053455,73.01218400,94.98023875,-176.93345777,-134.36800814,-60.90255756
-12.98896123,47.50531242,-29.55847759,-102.70131727,0.89834531,0.08431514
-0.25770596

>  <Name>
ligand

>  <RI>
0

>  <Rbt.Current_Directory>
/home/itssahil/PROJECTS/Mol_Feturizer/New_Systems/rnas/4L81

>  <Rbt.Executable>
rbdock ($Id: //depot/dev/client3/rdock/2013.1/src/exe/rbdock.cxx#4 $)

>  <Rbt.Library>
libRbt.so (2013.1, Build901 2013/11/27)

>  <Rbt.Parameter_File>
/export/apps/rDock/src/rDock_2013.1_src/data/scripts/dock_solv.prm

>  <Rbt.Receptor>
prm/pocket_docking_2.prm

>  <SCORE>
-2.19353

>  <SCORE.INTER>
-5.51863

>  <SCORE.INTER.CONST>
1

>  <SCORE.INTER.POLAR>
0

>  <SCORE.INTER.ROT>
7

>  <SCORE.INTER.SOLV>
16.5239

>  <SCORE.INTER.VDW>
-17.4537

>  <SCORE.INTER.norm>
-0.204394

>  <SCORE.INTRA>
2.69931

>  <SCORE.INTRA.DIHEDRAL>
3.81142

>  <SCORE.INTRA.DIHEDRAL.0>
8.34559

>  <SCORE.INTRA.POLAR>
0

>  <SCORE.INTRA.POLAR.0>
0

>  <SCORE.INTRA.REPUL>
0

>  <SCORE.INTRA.REPUL.0>
0

>  <SCORE.INTRA.SOLV>
-0.0707196

>  <SCORE.INTRA.SOLV.lig_0>
-48.829

>  <SCORE.INTRA.VDW>
0.828961

>  <SCORE.INTRA.VDW.0>
-1.77092

>  <SCORE.INTRA.norm>
0.0999744

>  <SCORE.RESTR>
0.62579

>  <SCORE.RESTR.CAVITY>
0.62579

>  <SCORE.RESTR.norm>
0.0231774

>  <SCORE.SYSTEM>
0

>  <SCORE.SYSTEM.CONST>
0

>  <SCORE.SYSTEM.DIHEDRAL>
0

>  <SCORE.SYSTEM.SOLV>
0

>  <SCORE.SYSTEM.norm>
0

>  <SCORE.heavy>
27

>  <SCORE.norm>
-0.0812417

>  <RMSD>
2.916

$$$$
ligand
 OpenBabel11021811503D
libRbt.so/2013.1/901 2013/11/27
 27 29  0  0  0  0  0  0  0  0999 V2000
   48.2819  -24.6788 -105.3944 N   0  0  0  0  0  0  0  0  0  0  0  0
   47.3377  -25.7823 -105.6031 C   0  0  2  0  0  0  0  0  0  0  0  0
   46.1781  -25.6442 -104.6393 C   0  0  0  0  0  0  0  0  0  0  0  0
   45.0545  -25.9855 -104.9769 O   0  0  0  0  0  0  0  0  0  0  0  0
   48.0102  -27.1434 -105.3780 C   0  0  0  0  0  0  0  0  0  0  0  0
   48.6725  -27.2001 -104.0087 C   0  0  0  0  0  0  0  0  0  0  0  0
   48.4785  -28.8223 -103.1755 S   0  0  2  0  0  0  0  0  0  0  0  0
   49.0557  -28.5144 -101.4751 C   0  0  0  0  0  0  0  0  0  0  0  0
   49.9695  -29.5488 -103.8523 C   0  0  0  0  0  0  0  0  0  0  0  0
   50.0788  -31.0327 -103.6223 C   0  0  1  0  0  0  0  0  0  0  0  0
   49.1548  -31.3868 -102.5793 O   0  0  0  0  0  0  0  0  0  0  0  0
   49.5351  -31.5960 -104.8732 C   0  0  1  0  0  0  0  0  0  0  0  0
   50.6072  -31.9379 -105.7503 O   0  0  0  0  0  0  0  0  0  0  0  0
   48.8486  -32.8383 -104.3964 C   0  0  1  0  0  0  0  0  0  0  0  0
   49.7780  -33.9410 -104.3552 O   0  0  0  0  0  0  0  0  0  0  0  0
   48.3380  -32.5232 -102.9584 C   0  0  2  0  0  0  0  0  0  0  0  0
   46.3611  -25.2235 -103.5104 O   0  0  0  0  0  0  0  0  0  0  0  0
   44.6439  -29.7404 -100.3492 N   0  0  0  0  0  0  0  0  0  0  0  0
   45.9517  -29.8885 -100.0241 C   0  0  0  0  0  0  0  0  0  0  0  0
   46.8008  -30.5935 -100.8005 N   0  0  0  0  0  0  0  0  0  0  0  0
   46.3536  -31.2503 -101.8832 C   0  0  0  0  0  0  0  0  0  0  0  0
   44.9596  -31.1541 -102.2438 C   0  0  0  0  0  0  0  0  0  0  0  0
   44.1082  -30.3530 -101.4262 C   0  0  0  0  0  0  0  0  0  0  0  0
   42.7671  -30.2096 -101.7190 N   0  0  0  0  0  0  0  0  0  0  0  0
   44.7801  -31.8962 -103.3429 N   0  0  0  0  0  0  0  0  0  0  0  0
   45.9142  -32.4359 -103.6776 C   0  0  0  0  0  0  0  0  0  0  0  0
   46.9239  -32.0683 -102.8190 N   0  0  0  0  0  0  0  0  0  0  0  0
  2  1  1  1  0  0  0
  2  3  1  0  0  0  0
  2  5  1  0  0  0  0
  3  4  1  0  0  0  0
  3 17  1  0  0  0  0
  5  6  1  0  0  0  0
  7  6  1  6  0  0  0
  7  8  1  0  0  0  0
  7  9  1  0  0  0  0
 10  9  1  6  0  0  0
 10 11  1  0  0  0  0
 10 12  1  0  0  0  0
 11 16  1  0  0  0  0
 12 13  1  6  0  0  0
 12 14  1  0  0  0  0
 14 15  1  1  0  0  0
 14 16  1  0  0  0  0
 16 27  1  6  0  0  0
 18 19  2  0  0  0  0
 18 23  1  0  0  0  0
 19 20  1  0  0  0  0
 20 21  2  0  0  0  0
 21 22  1  0  0  0  0
 21 27  1  0  0  0  0
 22 23  2  0  0  0  0
 22 25  1  0  0  0  0
 23 24  1  0  0  0  0
 25 26  2  0  0  0  0
 26 27  1  0  0  0  0
M  END
>  <CHROM.1>
145.72932210,54.17663674,140.67771474,-169.28942931,-168.81695488,-17.12613793
-37.43655312,47.41000693,-29.68305384,-103.32158805,-1.80828212,-0.51877287
2.85815648

>  <Name>
ligand

>  <RI>
0

>  <Rbt.Current_Directory>
/home/itssahil/PROJECTS/Mol_Feturizer/New_Systems/rnas/4L81

>  <Rbt.Executable>
rbdock ($Id: //depot/dev/client3/rdock/2013.1/src/exe/rbdock.cxx#4 $)

>  <Rbt.Library>
libRbt.so (2013.1, Build901 2013/11/27)

>  <Rbt.Parameter_File>
/export/apps/rDock/src/rDock_2013.1_src/data/scripts/dock_solv.prm

>  <Rbt.Receptor>
prm/pocket_docking_4.prm

>  <SCORE>
-8.30113

>  <SCORE.INTER>
-9.77605

>  <SCORE.INTER.CONST>
1

>  <SCORE.INTER.POLAR>
0

>  <SCORE.INTER.ROT>
7

>  <SCORE.INTER.SOLV>
16.1429

>  <SCORE.INTER.VDW>
-20.165

>  <SCORE.INTER.norm>
-0.362076

>  <SCORE.INTRA>
1.47492

>  <SCORE.INTRA.DIHEDRAL>
5.18523

>  <SCORE.INTRA.DIHEDRAL.0>
8.34559

>  <SCORE.INTRA.POLAR>
0

>  <SCORE.INTRA.POLAR.0>
0

>  <SCORE.INTRA.REPUL>
0

>  <SCORE.INTRA.REPUL.0>
0

>  <SCORE.INTRA.SOLV>
-0.298706

>  <SCORE.INTRA.SOLV.lig_0>
-48.829

>  <SCORE.INTRA.VDW>
-0.968347

>  <SCORE.INTRA.VDW.0>
-1.77092

>  <SCORE.INTRA.norm>
0.0546266

>  <SCORE.RESTR>
0

>  <SCORE.RESTR.CAVITY>
0

>  <SCORE.RESTR.norm>
0

>  <SCORE.SYSTEM>
0

>  <SCORE.SYSTEM.CONST>
0

>  <SCORE.SYSTEM.DIHEDRAL>
0

>  <SCORE.SYSTEM.SOLV>
0

>  <SCORE.SYSTEM.norm>
0

>  <SCORE.heavy>
27

>  <SCORE.norm>
-0.307449

>  <RMSD>
2.967

$$$$
ligand
 OpenBabel11021811503D
libRbt.so/2013.1/901 2013/11/27
 27 29  0  0  0  0  0  0  0  0999 V2000
   47.1866  -26.3347 -104.6155 N   0  0  0  0  0  0  0  0  0  0  0  0
   45.8103  -26.2311 -105.1133 C   0  0  2  0  0  0  0  0  0  0  0  0
   44.8513  -26.7370 -104.0564 C   0  0  0  0  0  0  0  0  0  0  0  0
   45.2772  -27.1619 -102.9930 O   0  0  0  0  0  0  0  0  0  0  0  0
   45.6158  -27.0540 -106.3941 C   0  0  0  0  0  0  0  0  0  0  0  0
   45.8711  -28.5316 -106.1322 C   0  0  0  0  0  0  0  0  0  0  0  0
   47.6519  -28.9701 -106.1251 S   0  0  2  0  0  0  0  0  0  0  0  0
   48.1119  -28.9671 -107.8881 C   0  0  0  0  0  0  0  0  0  0  0  0
   47.4004  -30.7296 -105.9023 C   0  0  0  0  0  0  0  0  0  0  0  0
   48.6635  -31.4875 -105.5912 C   0  0  1  0  0  0  0  0  0  0  0  0
   49.3036  -30.8405 -104.4783 O   0  0  0  0  0  0  0  0  0  0  0  0
   48.1526  -32.7777 -105.0890 C   0  0  1  0  0  0  0  0  0  0  0  0
   48.1682  -33.7414 -106.1409 O   0  0  0  0  0  0  0  0  0  0  0  0
   49.1642  -33.1420 -104.0468 C   0  0  1  0  0  0  0  0  0  0  0  0
   50.2639  -33.8598 -104.6442 O   0  0  0  0  0  0  0  0  0  0  0  0
   49.6732  -31.7950 -103.4515 C   0  0  2  0  0  0  0  0  0  0  0  0
   43.6480  -26.6938 -104.2439 O   0  0  0  0  0  0  0  0  0  0  0  0
   45.2835  -30.4980 -100.7597 N   0  0  0  0  0  0  0  0  0  0  0  0
   45.3735  -30.9031 -102.0503 C   0  0  0  0  0  0  0  0  0  0  0  0
   46.5545  -31.2456 -102.6061 N   0  0  0  0  0  0  0  0  0  0  0  0
   47.6999  -31.1102 -101.9181 C   0  0  0  0  0  0  0  0  0  0  0  0
   47.6550  -30.6428 -100.5536 C   0  0  0  0  0  0  0  0  0  0  0  0
   46.3799  -30.3447  -99.9874 C   0  0  0  0  0  0  0  0  0  0  0  0
   46.2636  -29.9028  -98.6852 N   0  0  0  0  0  0  0  0  0  0  0  0
   48.9157  -30.5943 -100.1072 N   0  0  0  0  0  0  0  0  0  0  0  0
   49.7153  -30.9738 -101.0590 C   0  0  0  0  0  0  0  0  0  0  0  0
   49.0231  -31.3119 -102.1984 N   0  0  0  0  0  0  0  0  0  0  0  0
  2  1  1  1  0  0  0
  2  3  1  0  0  0  0
  2  5  1  0  0  0  0
  3  4  1  0  0  0  0
  3 17  1  0  0  0  0
  5  6  1  0  0  0  0
  7  6  1  6  0  0  0
  7  8  1  0  0  0  0
  7  9  1  0  0  0  0
 10  9  1  1  0  0  0
 10 11  1  0  0  0  0
 10 12  1  0  0  0  0
 11 16  1  0  0  0  0
 12 13  1  6  0  0  0
 12 14  1  0  0  0  0
 14 15  1  6  0  0  0
 14 16  1  0  0  0  0
 16 27  1  1  0  0  0
 18 19  2  0  0  0  0
 18 23  1  0  0  0  0
 19 20  1  0  0  0  0
 20 21  2  0  0  0  0
 21 22  1  0  0  0  0
 21 27  1  0  0  0  0
 22 23  2  0  0  0  0
 22 25  1  0  0  0  0
 23 24  1  0  0  0  0
 25 26  2  0  0  0  0
 26 27  1  0  0  0  0
M  END
>  <CHROM.1>
-0.92387064,61.61958649,-80.69653242,-75.63783431,-169.58235824,52.38437293
59.73483689,47.33811480,-30.03644656,-103.78601816,-2.58672168,-0.93665294
1.82733354

>  <Name>
ligand

>  <RI>
0

>  <Rbt.Current_Directory>
/home/itssahil/PROJECTS/Mol_Feturizer/New_Systems/rnas/4L81

>  <Rbt.Executable>
rbdock ($Id: //depot/dev/client3/rdock/2013.1/src/exe/rbdock.cxx#4 $)

>  <Rbt.Library>
libRbt.so (2013.1, Build901 2013/11/27)

>  <Rbt.Parameter_File>
/export/apps/rDock/src/rDock_2013.1_src/data/scripts/dock_solv.prm

>  <Rbt.Receptor>
prm/pocket_docking_5.prm

>  <SCORE>
-12.5169

>  <SCORE.INTER>
-10.3885

>  <SCORE.INTER.CONST>
1

>  <SCORE.INTER.POLAR>
0

>  <SCORE.INTER.ROT>
7

>  <SCORE.INTER.SOLV>
18.2259

>  <SCORE.INTER.VDW>
-21.2676

>  <SCORE.INTER.norm>
-0.384758

>  <SCORE.INTRA>
-2.12845

>  <SCORE.INTRA.DIHEDRAL>
-2.41343

>  <SCORE.INTRA.DIHEDRAL.0>
8.34559

>  <SCORE.INTRA.POLAR>
0

>  <SCORE.INTRA.POLAR.0>
0

>  <SCORE.INTRA.REPUL>
0

>  <SCORE.INTRA.REPUL.0>
0

>  <SCORE.INTRA.SOLV>
1.00047

>  <SCORE.INTRA.SOLV.lig_0>
-48.829

>  <SCORE.INTRA.VDW>
-1.42197

>  <SCORE.INTRA.VDW.0>
-1.77092

>  <SCORE.INTRA.norm>
-0.0788314

>  <SCORE.RESTR>
0

>  <SCORE.RESTR.CAVITY>
0

>  <SCORE.RESTR.norm>
0

>  <SCORE.SYSTEM>
0

>  <SCORE.SYSTEM.CONST>
0

>  <SCORE.SYSTEM.DIHEDRAL>
0

>  <SCORE.SYSTEM.SOLV>
0

>  <SCORE.SYSTEM.norm>
0

>  <SCORE.heavy>
27

>  <SCORE.norm>
-0.463589

>  <RMSD>
3.277

$$$$
ligand
 OpenBabel11021811503D
libRbt.so/2013.1/901 2013/11/27
 27 29  0  0  0  0  0  0  0  0999 V2000
   48.7212  -22.9979 -105.1500 N   0  0  0  0  0  0  0  0  0  0  0  0
   50.0590  -23.0591 -104.5507 C   0  0  2  0  0  0  0  0  0  0  0  0
   51.0232  -22.2400 -105.3827 C   0  0  0  0  0  0  0  0  0  0  0  0
   51.8078  -21.4766 -104.8401 O   0  0  0  0  0  0  0  0  0  0  0  0
   50.5722  -24.5035 -104.4753 C   0  0  0  0  0  0  0  0  0  0  0  0
   49.8008  -25.2982 -103.4313 C   0  0  0  0  0  0  0  0  0  0  0  0
   50.4591  -26.9907 -103.1753 S   0  0  2  0  0  0  0  0  0  0  0  0
   49.9890  -27.8792 -104.6950 C   0  0  0  0  0  0  0  0  0  0  0  0
   49.1302  -27.5381 -102.1061 C   0  0  0  0  0  0  0  0  0  0  0  0
   49.5564  -28.5578 -101.0836 C   0  0  1  0  0  0  0  0  0  0  0  0
   48.4443  -28.7907 -100.2027 O   0  0  0  0  0  0  0  0  0  0  0  0
   49.7144  -29.7820 -101.8922 C   0  0  1  0  0  0  0  0  0  0  0  0
   51.0894  -29.9597 -102.2289 O   0  0  0  0  0  0  0  0  0  0  0  0
   49.2777  -30.8546 -100.9431 C   0  0  1  0  0  0  0  0  0  0  0  0
   50.3905  -31.2955 -100.1376 O   0  0  0  0  0  0  0  0  0  0  0  0
   48.1902  -30.2081 -100.0336 C   0  0  2  0  0  0  0  0  0  0  0  0
   51.0474  -22.3598 -106.5951 O   0  0  0  0  0  0  0  0  0  0  0  0
   44.5815  -32.1813 -103.3925 N   0  0  0  0  0  0  0  0  0  0  0  0
   45.9316  -32.2354 -103.5028 C   0  0  0  0  0  0  0  0  0  0  0  0
   46.7426  -31.7275 -102.5513 N   0  0  0  0  0  0  0  0  0  0  0  0
   46.2332  -31.0682 -101.4980 C   0  0  0  0  0  0  0  0  0  0  0  0
   44.8014  -30.9506 -101.3615 C   0  0  0  0  0  0  0  0  0  0  0  0
   43.9799  -31.5503 -102.3620 C   0  0  0  0  0  0  0  0  0  0  0  0
   42.6034  -31.4841 -102.2882 N   0  0  0  0  0  0  0  0  0  0  0  0
   44.5634  -30.2529 -100.2447 N   0  0  0  0  0  0  0  0  0  0  0  0
   45.6981  -29.9302  -99.6988 C   0  0  0  0  0  0  0  0  0  0  0  0
   46.7641  -30.4117 -100.4223 N   0  0  0  0  0  0  0  0  0  0  0  0
  2  1  1  6  0  0  0
  2  3  1  0  0  0  0
  2  5  1  0  0  0  0
  3  4  1  0  0  0  0
  3 17  1  0  0  0  0
  5  6  1  0  0  0  0
  7  6  1  6  0  0  0
  7  8  1  0  0  0  0
  7  9  1  0  0  0  0
 10  9  1  6  0  0  0
 10 11  1  0  0  0  0
 10 12  1  0  0  0  0
 11 16  1  0  0  0  0
 12 13  1  1  0  0  0
 12 14  1  0  0  0  0
 14 15  1  1  0  0  0
 14 16  1  0  0  0  0
 16 27  1  6  0  0  0
 18 19  2  0  0  0  0
 18 23  1  0  0  0  0
 19 20  1  0  0  0  0
 20 21  2  0  0  0  0
 21 22  1  0  0  0  0
 21 27  1  0  0  0  0
 22 23  2  0  0  0  0
 22 25  1  0  0  0  0
 23 24  1  0  0  0  0
 25 26  2  0  0  0  0
 26 27  1  0  0  0  0
M  END
>  <CHROM.1>
134.69501560,-70.55628028,-174.73359401,-71.55227857,-149.08210242,173.43339862
111.61704495,48.40567733,-28.20806339,-102.58778112,1.02752736,-0.26948259
-0.57093974

>  <Name>
ligand

>  <RI>
0

>  <Rbt.Current_Directory>
/home/itssahil/PROJECTS/Mol_Feturizer/New_Systems/rnas/4L81

>  <Rbt.Executable>
rbdock ($Id: //depot/dev/client3/rdock/2013.1/src/exe/rbdock.cxx#4 $)

>  <Rbt.Library>
libRbt.so (2013.1, Build901 2013/11/27)

>  <Rbt.Parameter_File>
/export/apps/rDock/src/rDock_2013.1_src/data/scripts/dock_solv.prm

>  <Rbt.Receptor>
prm/pocket_docking_7.prm

>  <SCORE>
-19.0541

>  <SCORE.INTER>
-17.2991

>  <SCORE.INTER.CONST>
1

>  <SCORE.INTER.POLAR>
0

>  <SCORE.INTER.ROT>
7

>  <SCORE.INTER.SOLV>
18.4002

>  <SCORE.INTER.VDW>
-25.9328

>  <SCORE.INTER.norm>
-0.640707

>  <SCORE.INTRA>
-1.75498

>  <SCORE.INTRA.DIHEDRAL>
-1.27973

>  <SCORE.INTRA.DIHEDRAL.0>
8.34559

>  <SCORE.INTRA.POLAR>
0

>  <SCORE.INTRA.POLAR.0>
0

>  <SCORE.INTRA.REPUL>
0

>  <SCORE.INTRA.REPUL.0>
0

>  <SCORE.INTRA.SOLV>
-0.441978

>  <SCORE.INTRA.SOLV.lig_0>
-48.829

>  <SCORE.INTRA.VDW>
-0.894128

>  <SCORE.INTRA.VDW.0>
-1.77092

>  <SCORE.INTRA.norm>
-0.0649993

>  <SCORE.RESTR>
0

>  <SCORE.RESTR.CAVITY>
0

>  <SCORE.RESTR.norm>
0

>  <SCORE.SYSTEM>
0

>  <SCORE.SYSTEM.CONST>
0

>  <SCORE.SYSTEM.DIHEDRAL>
0

>  <SCORE.SYSTEM.SOLV>
0

>  <SCORE.SYSTEM.norm>
0

>  <SCORE.heavy>
27

>  <SCORE.norm>
-0.705706

>  <RMSD>
3.543

$$$$
ligand
 OpenBabel11021811503D
libRbt.so/2013.1/901 2013/11/27
 27 29  0  0  0  0  0  0  0  0999 V2000
   49.1875  -22.3960 -104.6265 N   0  0  0  0  0  0  0  0  0  0  0  0
   50.6020  -22.7015 -104.8687 C   0  0  2  0  0  0  0  0  0  0  0  0
   51.1503  -21.7575 -105.9179 C   0  0  0  0  0  0  0  0  0  0  0  0
   52.1260  -21.0646 -105.6714 O   0  0  0  0  0  0  0  0  0  0  0  0
   50.7866  -24.1452 -105.3554 C   0  0  0  0  0  0  0  0  0  0  0  0
   50.1969  -25.1323 -104.3581 C   0  0  0  0  0  0  0  0  0  0  0  0
   50.2280  -26.8678 -104.9500 S   0  0  2  0  0  0  0  0  0  0  0  0
   49.1211  -26.8582 -106.3971 C   0  0  0  0  0  0  0  0  0  0  0  0
   49.0828  -27.4942 -103.7232 C   0  0  0  0  0  0  0  0  0  0  0  0
   49.7541  -28.0446 -102.4930 C   0  0  1  0  0  0  0  0  0  0  0  0
   48.8085  -27.9879 -101.4116 O   0  0  0  0  0  0  0  0  0  0  0  0
   49.9240  -29.4719 -102.8270 C   0  0  1  0  0  0  0  0  0  0  0  0
   51.2485  -29.6973 -103.3069 O   0  0  0  0  0  0  0  0  0  0  0  0
   49.7412  -30.1385 -101.4987 C   0  0  1  0  0  0  0  0  0  0  0  0
   50.9967  -30.1997 -100.7909 O   0  0  0  0  0  0  0  0  0  0  0  0
   48.7312  -29.2534 -100.7083 C   0  0  2  0  0  0  0  0  0  0  0  0
   50.6446  -21.7054 -107.0254 O   0  0  0  0  0  0  0  0  0  0  0  0
   44.0227  -29.2089 -103.1630 N   0  0  0  0  0  0  0  0  0  0  0  0
   45.1665  -28.5963 -103.5557 C   0  0  0  0  0  0  0  0  0  0  0  0
   46.3148  -28.7221 -102.8581 N   0  0  0  0  0  0  0  0  0  0  0  0
   46.3391  -29.3921 -101.6945 C   0  0  0  0  0  0  0  0  0  0  0  0
   45.1336  -30.0259 -101.2173 C   0  0  0  0  0  0  0  0  0  0  0  0
   43.9555  -29.9143 -102.0141 C   0  0  0  0  0  0  0  0  0  0  0  0
   42.7710  -30.5041 -101.6222 N   0  0  0  0  0  0  0  0  0  0  0  0
   45.4267  -30.6126 -100.0508 N   0  0  0  0  0  0  0  0  0  0  0  0
   46.6766  -30.3927  -99.7700 C   0  0  0  0  0  0  0  0  0  0  0  0
   47.2939  -29.6516 -100.7505 N   0  0  0  0  0  0  0  0  0  0  0  0
  2  1  1  6  0  0  0
  2  3  1  0  0  0  0
  2  5  1  0  0  0  0
  3  4  1  0  0  0  0
  3 17  1  0  0  0  0
  5  6  1  0  0  0  0
  7  6  1  1  0  0  0
  7  8  1  0  0  0  0
  7  9  1  0  0  0  0
 10  9  1  6  0  0  0
 10 11  1  0  0  0  0
 10 12  1  0  0  0  0
 11 16  1  0  0  0  0
 12 13  1  1  0  0  0
 12 14  1  0  0  0  0
 14 15  1  1  0  0  0
 14 16  1  0  0  0  0
 16 27  1  6  0  0  0
 18 19  2  0  0  0  0
 18 23  1  0  0  0  0
 19 20  1  0  0  0  0
 20 21  2  0  0  0  0
 21 22  1  0  0  0  0
 21 27  1  0  0  0  0
 22 23  2  0  0  0  0
 22 25  1  0  0  0  0
 23 24  1  0  0  0  0
 25 26  2  0  0  0  0
 26 27  1  0  0  0  0
M  END
>  <CHROM.1>
123.57613573,-56.83471813,174.17288179,-64.49209928,-93.14640598,156.38882951
30.43012713,48.54206613,-27.38231231,-103.20024617,1.03751563,-0.03115111
-0.56647268

>  <Name>
ligand

>  <RI>
0

>  <Rbt.Current_Directory>
/home/itssahil/PROJECTS/Mol_Feturizer/New_Systems/rnas/4L81

>  <Rbt.Executable>
rbdock ($Id: //depot/dev/client3/rdock/2013.1/src/exe/rbdock.cxx#4 $)

>  <Rbt.Library>
libRbt.so (2013.1, Build901 2013/11/27)

>  <Rbt.Parameter_File>
/export/apps/rDock/src/rDock_2013.1_src/data/scripts/dock_solv.prm

>  <Rbt.Receptor>
prm/pocket_docking_7.prm

>  <SCORE>
-14.8662

>  <SCORE.INTER>
-12.7095

>  <SCORE.INTER.CONST>
1

>  <SCORE.INTER.POLAR>
0

>  <SCORE.INTER.ROT>
7

>  <SCORE.INTER.SOLV>
17.5236

>  <SCORE.INTER.VDW>
-22.5809

>  <SCORE.INTER.norm>
-0.470722

>  <SCORE.INTRA>
-2.18149

>  <SCORE.INTRA.DIHEDRAL>
-1.49103

>  <SCORE.INTRA.DIHEDRAL.0>
8.34559

>  <SCORE.INTRA.POLAR>
0

>  <SCORE.INTRA.POLAR.0>
0

>  <SCORE.INTRA.REPUL>
0

>  <SCORE.INTRA.REPUL.0>
0

>  <SCORE.INTRA.SOLV>
-0.489188

>  <SCORE.INTRA.SOLV.lig_0>
-48.829

>  <SCORE.INTRA.VDW>
-1.19138

>  <SCORE.INTRA.VDW.0>
-1.77092

>  <SCORE.INTRA.norm>
-0.0807958

>  <SCORE.RESTR>
0.0247948

>  <SCORE.RESTR.CAVITY>
0.0247948

>  <SCORE.RESTR.norm>
0.000918327

>  <SCORE.SYSTEM>
0

>  <SCORE.SYSTEM.CONST>
0

>  <SCORE.SYSTEM.DIHEDRAL>
0

>  <SCORE.SYSTEM.SOLV>
0

>  <SCORE.SYSTEM.norm>
0

>  <SCORE.heavy>
27

>  <SCORE.norm>
-0.5506

>  <RMSD>
3.784

$$$$
ligand
 OpenBabel11021811503D
libRbt.so/2013.1/901 2013/11/27
 27 29  0  0  0  0  0  0  0  0999 V2000
   44.1257  -26.3595 -105.1599 N   0  0  0  0  0  0  0  0  0  0  0  0
   45.3258  -25.8269 -105.8148 C   0  0  2  0  0  0  0  0  0  0  0  0
   45.9052  -26.8771 -106.7389 C   0  0  0  0  0  0  0  0  0  0  0  0
   46.5484  -26.5428 -107.7225 O   0  0  0  0  0  0  0  0  0  0  0  0
   46.3930  -25.4277 -104.7867 C   0  0  0  0  0  0  0  0  0  0  0  0
   46.8117  -26.6268 -103.9478 C   0  0  0  0  0  0  0  0  0  0  0  0
   48.0001  -26.2019 -102.6171 S   0  0  2  0  0  0  0  0  0  0  0  0
   49.5966  -26.0588 -103.4833 C   0  0  0  0  0  0  0  0  0  0  0  0
   48.1682  -27.8713 -101.9897 C   0  0  0  0  0  0  0  0  0  0  0  0
   46.8798  -28.4592 -101.4788 C   0  0  1  0  0  0  0  0  0  0  0  0
   46.2635  -29.1786 -102.5602 O   0  0  0  0  0  0  0  0  0  0  0  0
   47.3459  -29.4726 -100.5127 C   0  0  1  0  0  0  0  0  0  0  0  0
   47.2959  -28.9345  -99.1923 O   0  0  0  0  0  0  0  0  0  0  0  0
   46.3232  -30.5559 -100.6623 C   0  0  1  0  0  0  0  0  0  0  0  0
   45.1986  -30.3081  -99.7932 O   0  0  0  0  0  0  0  0  0  0  0  0
   45.8618  -30.5099 -102.1499 C   0  0  2  0  0  0  0  0  0  0  0  0
   45.7635  -28.0619 -106.4919 O   0  0  0  0  0  0  0  0  0  0  0  0
   46.4232  -32.4292 -107.0692 N   0  0  0  0  0  0  0  0  0  0  0  0
   45.5466  -31.4867 -106.6436 C   0  0  0  0  0  0  0  0  0  0  0  0
   45.5348  -31.0537 -105.3656 N   0  0  0  0  0  0  0  0  0  0  0  0
   46.3393  -31.6114 -104.4462 C   0  0  0  0  0  0  0  0  0  0  0  0
   47.2603  -32.6476 -104.8468 C   0  0  0  0  0  0  0  0  0  0  0  0
   47.2782  -33.0364 -106.2193 C   0  0  0  0  0  0  0  0  0  0  0  0
   48.1407  -34.0139 -106.6724 N   0  0  0  0  0  0  0  0  0  0  0  0
   47.9306  -33.0296 -103.7533 N   0  0  0  0  0  0  0  0  0  0  0  0
   47.5060  -32.3411 -102.7360 C   0  0  0  0  0  0  0  0  0  0  0  0
   46.5295  -31.4445 -103.1023 N   0  0  0  0  0  0  0  0  0  0  0  0
  2  1  1  1  0  0  0
  2  3  1  0  0  0  0
  2  5  1  0  0  0  0
  3  4  1  0  0  0  0
  3 17  1  0  0  0  0
  5  6  1  0  0  0  0
  7  6  1  6  0  0  0
  7  8  1  0  0  0  0
  7  9  1  0  0  0  0
 10  9  1  6  0  0  0
 10 11  1  0  0  0  0
 10 12  1  0  0  0  0
 11 16  1  0  0  0  0
 12 13  1  1  0  0  0
 12 14  1  0  0  0  0
 14 15  1  1  0  0  0
 14 16  1  0  0  0  0
 16 27  1  6  0  0  0
 18 19  2  0  0  0  0
 18 23  1  0  0  0  0
 19 20  1  0  0  0  0
 20 21  2  0  0  0  0
 21 22  1  0  0  0  0
 21 27  1  0  0  0  0
 22 23  2  0  0  0  0
 22 25  1  0  0  0  0
 23 24  1  0  0  0  0
 25 26  2  0  0  0  0
 26 27  1  0  0  0  0
M  END
>  <CHROM.1>
152.29625409,59.90892330,-175.94757251,-78.46837259,-61.22050667,92.57892027
-65.94550376,46.74005934,-29.26091653,-103.82439358,1.53310803,-1.43927375
0.17049411

>  <Name>
ligand

>  <RI>
0

>  <Rbt.Current_Directory>
/home/itssahil/PROJECTS/Mol_Feturizer/New_Systems/rnas/4L81

>  <Rbt.Executable>
rbdock ($Id: //depot/dev/client3/rdock/2013.1/src/exe/rbdock.cxx#4 $)

>  <Rbt.Library>
libRbt.so (2013.1, Build901 2013/11/27)

>  <Rbt.Parameter_File>
/export/apps/rDock/src/rDock_2013.1_src/data/scripts/dock_solv.prm

>  <Rbt.Receptor>
prm/pocket_docking_8.prm

>  <SCORE>
-13.4888

>  <SCORE.INTER>
-11.9938

>  <SCORE.INTER.CONST>
1

>  <SCORE.INTER.POLAR>
0

>  <SCORE.INTER.ROT>
7

>  <SCORE.INTER.SOLV>
16.4296

>  <SCORE.INTER.VDW>
-21.7391

>  <SCORE.INTER.norm>
-0.444215

>  <SCORE.INTRA>
-1.49494

>  <SCORE.INTRA.DIHEDRAL>
-1.8718

>  <SCORE.INTRA.DIHEDRAL.0>
8.34559

>  <SCORE.INTRA.POLAR>
0

>  <SCORE.INTRA.POLAR.0>
0

>  <SCORE.INTRA.REPUL>
0

>  <SCORE.INTRA.REPUL.0>
0

>  <SCORE.INTRA.SOLV>
-0.577188

>  <SCORE.INTRA.SOLV.lig_0>
-48.829

>  <SCORE.INTRA.VDW>
-0.270452

>  <SCORE.INTRA.VDW.0>
-1.77092

>  <SCORE.INTRA.norm>
-0.0553683

>  <SCORE.RESTR>
0

>  <SCORE.RESTR.CAVITY>
0

>  <SCORE.RESTR.norm>
0

>  <SCORE.SYSTEM>
0

>  <SCORE.SYSTEM.CONST>
0

>  <SCORE.SYSTEM.DIHEDRAL>
0

>  <SCORE.SYSTEM.SOLV>
0

>  <SCORE.SYSTEM.norm>
0

>  <SCORE.heavy>
27

>  <SCORE.norm>
-0.499584

>  <RMSD>
3.828

$$$$
ligand
 OpenBabel11021811503D
libRbt.so/2013.1/901 2013/11/27
 27 29  0  0  0  0  0  0  0  0999 V2000
   48.4925  -27.4836 -103.4326 N   0  0  0  0  0  0  0  0  0  0  0  0
   48.7516  -26.0429 -103.5323 C   0  0  2  0  0  0  0  0  0  0  0  0
   47.4592  -25.2816 -103.3249 C   0  0  0  0  0  0  0  0  0  0  0  0
   47.4662  -24.2050 -102.7474 O   0  0  0  0  0  0  0  0  0  0  0  0
   49.3305  -25.6727 -104.9046 C   0  0  0  0  0  0  0  0  0  0  0  0
   48.4549  -26.2146 -106.0255 C   0  0  0  0  0  0  0  0  0  0  0  0
   49.0226  -27.8345 -106.6712 S   0  0  2  0  0  0  0  0  0  0  0  0
   48.5667  -27.7885 -108.4347 C   0  0  0  0  0  0  0  0  0  0  0  0
   47.6312  -28.7727 -106.0447 C   0  0  0  0  0  0  0  0  0  0  0  0
   47.8192  -30.2642 -106.1283 C   0  0  1  0  0  0  0  0  0  0  0  0
   48.6125  -30.6729 -105.0011 O   0  0  0  0  0  0  0  0  0  0  0  0
   46.4562  -30.7771 -105.8900 C   0  0  1  0  0  0  0  0  0  0  0  0
   45.8294  -31.0696 -107.1378 O   0  0  0  0  0  0  0  0  0  0  0  0
   46.7154  -32.0459 -105.1383 C   0  0  1  0  0  0  0  0  0  0  0  0
   46.9197  -33.1402 -106.0560 O   0  0  0  0  0  0  0  0  0  0  0  0
   48.0135  -31.7993 -104.3123 C   0  0  2  0  0  0  0  0  0  0  0  0
   46.4088  -25.7195 -103.7605 O   0  0  0  0  0  0  0  0  0  0  0  0
   44.8619  -30.4838 -100.2460 N   0  0  0  0  0  0  0  0  0  0  0  0
   44.4909  -30.8153 -101.5071 C   0  0  0  0  0  0  0  0  0  0  0  0
   45.3955  -31.1727 -102.4424 N   0  0  0  0  0  0  0  0  0  0  0  0
   46.7110  -31.1256 -102.1761 C   0  0  0  0  0  0  0  0  0  0  0  0
   47.1529  -30.7382 -100.8581 C   0  0  0  0  0  0  0  0  0  0  0  0
   46.1606  -30.4217  -99.8831 C   0  0  0  0  0  0  0  0  0  0  0  0
   46.5130  -30.0532  -98.6006 N   0  0  0  0  0  0  0  0  0  0  0  0
   48.4907  -30.7682 -100.8614 N   0  0  0  0  0  0  0  0  0  0  0  0
   48.9020  -31.1234 -102.0421 C   0  0  0  0  0  0  0  0  0  0  0  0
   47.8498  -31.3648 -102.8943 N   0  0  0  0  0  0  0  0  0  0  0  0
  2  1  1  6  0  0  0
  2  3  1  0  0  0  0
  2  5  1  0  0  0  0
  3  4  1  0  0  0  0
  3 17  1  0  0  0  0
  5  6  1  0  0  0  0
  7  6  1  1  0  0  0
  7  8  1  0  0  0  0
  7  9  1  0  0  0  0
 10  9  1  1  0  0  0
 10 11  1  0  0  0  0
 10 12  1  0  0  0  0
 11 16  1  0  0  0  0
 12 13  1  6  0  0  0
 12 14  1  0  0  0  0
 14 15  1  6  0  0  0
 14 16  1  0  0  0  0
 16 27  1  1  0  0  0
 18 19  2  0  0  0  0
 18 23  1  0  0  0  0
 19 20  1  0  0  0  0
 20 21  2  0  0  0  0
 21 22  1  0  0  0  0
 21 27  1  0  0  0  0
 22 23  2  0  0  0  0
 22 25  1  0  0  0  0
 23 24  1  0  0  0  0
 25 26  2  0  0  0  0
 26 27  1  0  0  0  0
M  END
>  <CHROM.1>
144.86956683,52.43929816,-95.20467983,-147.57187758,-168.72306023,81.49045746
112.62350515,47.43795427,-29.25192266,-103.93432871,-0.02285741,1.26886125
0.77091679

>  <Name>
ligand

>  <RI>
0

>  <Rbt.Current_Directory>
/home/itssahil/PROJECTS/Mol_Feturizer/New_Systems/rnas/4L81

>  <Rbt.Executable>
rbdock ($Id: //depot/dev/client3/rdock/2013.1/src/exe/rbdock.cxx#4 $)

>  <Rbt.Library>
libRbt.so (2013.1, Build901 2013/11/27)

>  <Rbt.Parameter_File>
/export/apps/rDock/src/rDock_2013.1_src/data/scripts/dock_solv.prm

>  <Rbt.Receptor>
prm/pocket_docking_4.prm

>  <SCORE>
-4.9092

>  <SCORE.INTER>
-6.92358

>  <SCORE.INTER.CONST>
1

>  <SCORE.INTER.POLAR>
0

>  <SCORE.INTER.ROT>
7

>  <SCORE.INTER.SOLV>
17.4392

>  <SCORE.INTER.VDW>
-18.6955

>  <SCORE.INTER.norm>
-0.256429

>  <SCORE.INTRA>
2.01439

>  <SCORE.INTRA.DIHEDRAL>
4.37216

>  <SCORE.INTRA.DIHEDRAL.0>
8.34559

>  <SCORE.INTRA.POLAR>
0

>  <SCORE.INTRA.POLAR.0>
0

>  <SCORE.INTRA.REPUL>
0

>  <SCORE.INTRA.REPUL.0>
0

>  <SCORE.INTRA.SOLV>
2.54667

>  <SCORE.INTRA.SOLV.lig_0>
-48.829

>  <SCORE.INTRA.VDW>
-1.44503

>  <SCORE.INTRA.VDW.0>
-1.77092

>  <SCORE.INTRA.norm>
0.0746069

>  <SCORE.RESTR>
0

>  <SCORE.RESTR.CAVITY>
0

>  <SCORE.RESTR.norm>
0

>  <SCORE.SYSTEM>
0

>  <SCORE.SYSTEM.CONST>
0

>  <SCORE.SYSTEM.DIHEDRAL>
0

>  <SCORE.SYSTEM.SOLV>
0

>  <SCORE.SYSTEM.norm>
0

>  <SCORE.heavy>
27

>  <SCORE.norm>
-0.181822

>  <RMSD>
3.855

$$$$
ligand
 OpenBabel11021811503D
libRbt.so/2013.1/901 2013/11/27
 27 29  0  0  0  0  0  0  0  0999 V2000
   45.8479  -26.5167 -105.8346 N   0  0  0  0  0  0  0  0  0  0  0  0
   46.0375  -25.1952 -105.2261 C   0  0  2  0  0  0  0  0  0  0  0  0
   45.9850  -24.1312 -106.3022 C   0  0  0  0  0  0  0  0  0  0  0  0
   45.6100  -23.0006 -106.0305 O   0  0  0  0  0  0  0  0  0  0  0  0
   47.3875  -25.1019 -104.5019 C   0  0  0  0  0  0  0  0  0  0  0  0
   47.6189  -26.3267 -103.6284 C   0  0  0  0  0  0  0  0  0  0  0  0
   49.2496  -26.3217 -102.7892 S   0  0  2  0  0  0  0  0  0  0  0  0
   50.4322  -25.9691 -104.1297 C   0  0  0  0  0  0  0  0  0  0  0  0
   49.4208  -28.1036 -102.7236 C   0  0  0  0  0  0  0  0  0  0  0  0
   48.5465  -28.7585 -101.6875 C   0  0  1  0  0  0  0  0  0  0  0  0
   47.5137  -29.4838 -102.3761 O   0  0  0  0  0  0  0  0  0  0  0  0
   49.4451  -29.7685 -101.0959 C   0  0  1  0  0  0  0  0  0  0  0  0
   50.0101  -29.2589  -99.8890 O   0  0  0  0  0  0  0  0  0  0  0  0
   48.5069  -30.8936 -100.7859 C   0  0  1  0  0  0  0  0  0  0  0  0
   47.9212  -30.7133  -99.4799 O   0  0  0  0  0  0  0  0  0  0  0  0
   47.3948  -30.8395 -101.8761 C   0  0  2  0  0  0  0  0  0  0  0  0
   46.3468  -24.3843 -107.4379 O   0  0  0  0  0  0  0  0  0  0  0  0
   50.5488  -33.3060 -105.3642 N   0  0  0  0  0  0  0  0  0  0  0  0
   50.9180  -32.4805 -104.3541 C   0  0  0  0  0  0  0  0  0  0  0  0
   50.0136  -31.9476 -103.5062 N   0  0  0  0  0  0  0  0  0  0  0  0
   48.6989  -32.1495 -103.6919 C   0  0  0  0  0  0  0  0  0  0  0  0
   48.2584  -32.9887 -104.7801 C   0  0  0  0  0  0  0  0  0  0  0  0
   49.2512  -33.5768 -105.6191 C   0  0  0  0  0  0  0  0  0  0  0  0
   48.9003  -34.3974 -106.6718 N   0  0  0  0  0  0  0  0  0  0  0  0
   46.9211  -33.0190 -104.7440 N   0  0  0  0  0  0  0  0  0  0  0  0
   46.5087  -32.2812 -103.7566 C   0  0  0  0  0  0  0  0  0  0  0  0
   47.5598  -31.7245 -103.0660 N   0  0  0  0  0  0  0  0  0  0  0  0
  2  1  1  6  0  0  0
  2  3  1  0  0  0  0
  2  5  1  0  0  0  0
  3  4  1  0  0  0  0
  3 17  1  0  0  0  0
  5  6  1  0  0  0  0
  7  6  1  6  0  0  0
  7  8  1  0  0  0  0
  7  9  1  0  0  0  0
 10  9  1  6  0  0  0
 10 11  1  0  0  0  0
 10 12  1  0  0  0  0
 11 16  1  0  0  0  0
 12 13  1  1  0  0  0
 12 14  1  0  0  0  0
 14 15  1  1  0  0  0
 14 16  1  0  0  0  0
 16 27  1  6  0  0  0
 18 19  2  0  0  0  0
 18 23  1  0  0  0  0
 19 20  1  0  0  0  0
 20 21  2  0  0  0  0
 21 22  1  0  0  0  0
 21 27  1  0  0  0  0
 22 23  2  0  0  0  0
 22 25  1  0  0  0  0
 23 24  1  0  0  0  0
 25 26  2  0  0  0  0
 26 27  1  0  0  0  0
M  END
>  <CHROM.1>
151.82420936,-46.73244467,177.36974620,-49.85969343,-74.56384565,109.59242857
81.50473207,48.21698927,-29.10122416,-103.68177175,2.31978462,-1.20563325
0.50850479

>  <Name>
ligand

>  <RI>
0

>  <Rbt.Current_Directory>
/home/itssahil/PROJECTS/Mol_Feturizer/New_Systems/rnas/4L81

>  <Rbt.Executable>
rbdock ($Id: //depot/dev/client3/rdock/2013.1/src/exe/rbdock.cxx#4 $)

>  <Rbt.Library>
libRbt.so (2013.1, Build901 2013/11/27)

>  <Rbt.Parameter_File>
/export/apps/rDock/src/rDock_2013.1_src/data/scripts/dock_solv.prm

>  <Rbt.Receptor>
prm/pocket_docking_8.prm

>  <SCORE>
-10.9946

>  <SCORE.INTER>
-11.1303

>  <SCORE.INTER.CONST>
1

>  <SCORE.INTER.POLAR>
0

>  <SCORE.INTER.ROT>
7

>  <SCORE.INTER.SOLV>
9.47278

>  <SCORE.INTER.VDW>
-18.8444

>  <SCORE.INTER.norm>
-0.412232

>  <SCORE.INTRA>
-0.00698091

>  <SCORE.INTRA.DIHEDRAL>
1.381

>  <SCORE.INTRA.DIHEDRAL.0>
8.34559

>  <SCORE.INTRA.POLAR>
0

>  <SCORE.INTRA.POLAR.0>
0

>  <SCORE.INTRA.REPUL>
0

>  <SCORE.INTRA.REPUL.0>
0

>  <SCORE.INTRA.SOLV>
-0.460869

>  <SCORE.INTRA.SOLV.lig_0>
-48.829

>  <SCORE.INTRA.VDW>
-0.467048

>  <SCORE.INTRA.VDW.0>
-1.77092

>  <SCORE.INTRA.norm>
-0.000258552

>  <SCORE.RESTR>
0.142683

>  <SCORE.RESTR.CAVITY>
0.142683

>  <SCORE.RESTR.norm>
0.00528456

>  <SCORE.SYSTEM>
0

>  <SCORE.SYSTEM.CONST>
0

>  <SCORE.SYSTEM.DIHEDRAL>
0

>  <SCORE.SYSTEM.SOLV>
0

>  <SCORE.SYSTEM.norm>
0

>  <SCORE.heavy>
27

>  <SCORE.norm>
-0.407206

>  <RMSD>
3.960

$$$$
ligand
 OpenBabel11021811503D
libRbt.so/2013.1/901 2013/11/27
 27 29  0  0  0  0  0  0  0  0999 V2000
   44.9904  -26.1434 -104.9051 N   0  0  0  0  0  0  0  0  0  0  0  0
   46.2514  -25.3933 -104.9007 C   0  0  2  0  0  0  0  0  0  0  0  0
   46.1556  -24.2382 -105.8750 C   0  0  0  0  0  0  0  0  0  0  0  0
   45.4208  -24.3145 -106.8481 O   0  0  0  0  0  0  0  0  0  0  0  0
   47.4337  -26.2851 -105.3035 C   0  0  0  0  0  0  0  0  0  0  0  0
   47.7261  -27.3169 -104.2233 C   0  0  0  0  0  0  0  0  0  0  0  0
   48.3808  -26.5818 -102.6759 S   0  0  2  0  0  0  0  0  0  0  0  0
   50.1709  -26.4357 -102.9823 C   0  0  0  0  0  0  0  0  0  0  0  0
   48.3786  -28.1088 -101.7394 C   0  0  0  0  0  0  0  0  0  0  0  0
   47.0009  -28.5921 -101.3717 C   0  0  1  0  0  0  0  0  0  0  0  0
   46.4257  -29.2116 -102.5346 O   0  0  0  0  0  0  0  0  0  0  0  0
   47.2829  -29.6787 -100.4139 C   0  0  1  0  0  0  0  0  0  0  0  0
   47.1591  -29.1862  -99.0806 O   0  0  0  0  0  0  0  0  0  0  0  0
   46.1856  -30.6559 -100.7019 C   0  0  1  0  0  0  0  0  0  0  0  0
   45.0121  -30.3358  -99.9262 O   0  0  0  0  0  0  0  0  0  0  0  0
   45.8701  -30.5136 -102.2212 C   0  0  2  0  0  0  0  0  0  0  0  0
   46.7837  -23.2125 -105.6792 O   0  0  0  0  0  0  0  0  0  0  0  0
   46.4124  -32.5678 -107.0878 N   0  0  0  0  0  0  0  0  0  0  0  0
   45.5336  -31.6179 -106.6837 C   0  0  0  0  0  0  0  0  0  0  0  0
   45.5271  -31.1492 -105.4182 N   0  0  0  0  0  0  0  0  0  0  0  0
   46.3397  -31.6769 -104.4884 C   0  0  0  0  0  0  0  0  0  0  0  0
   47.2635  -32.7196 -104.8651 C   0  0  0  0  0  0  0  0  0  0  0  0
   47.2753  -33.1467 -106.2263 C   0  0  0  0  0  0  0  0  0  0  0  0
   48.1400  -34.1324 -106.6569 N   0  0  0  0  0  0  0  0  0  0  0  0
   47.9420  -33.0674 -103.7654 N   0  0  0  0  0  0  0  0  0  0  0  0
   47.5200  -32.3526 -102.7653 C   0  0  0  0  0  0  0  0  0  0  0  0
   46.5369  -31.4714 -103.1509 N   0  0  0  0  0  0  0  0  0  0  0  0
  2  1  1  6  0  0  0
  2  3  1  0  0  0  0
  2  5  1  0  0  0  0
  3  4  1  0  0  0  0
  3 17  1  0  0  0  0
  5  6  1  0  0  0  0
  7  6  1  6  0  0  0
  7  8  1  0  0  0  0
  7  9  1  0  0  0  0
 10  9  1  6  0  0  0
 10 11  1  0  0  0  0
 10 12  1  0  0  0  0
 11 16  1  0  0  0  0
 12 13  1  1  0  0  0
 12 14  1  0  0  0  0
 14 15  1  1  0  0  0
 14 16  1  0  0  0  0
 16 27  1  6  0  0  0
 18 19  2  0  0  0  0
 18 23  1  0  0  0  0
 19 20  1  0  0  0  0
 20 21  2  0  0  0  0
 21 22  1  0  0  0  0
 21 27  1  0  0  0  0
 22 23  2  0  0  0  0
 22 25  1  0  0  0  0
 23 24  1  0  0  0  0
 25 26  2  0  0  0  0
 26 27  1  0  0  0  0
M  END
>  <CHROM.1>
-28.05671447,-69.21905517,-68.10939682,-84.83092047,-71.49503147,78.17300783
-74.71151089,46.92750418,-29.03183080,-103.69908298,1.50928079,-1.45484049
-0.13354844

>  <Name>
ligand

>  <RI>
0

>  <Rbt.Current_Directory>
/home/itssahil/PROJECTS/Mol_Feturizer/New_Systems/rnas/4L81

>  <Rbt.Executable>
rbdock ($Id: //depot/dev/client3/rdock/2013.1/src/exe/rbdock.cxx#4 $)

>  <Rbt.Library>
libRbt.so (2013.1, Build901 2013/11/27)

>  <Rbt.Parameter_File>
/export/apps/rDock/src/rDock_2013.1_src/data/scripts/dock_solv.prm

>  <Rbt.Receptor>
prm/pocket_docking_6.prm

>  <SCORE>
-13.8378

>  <SCORE.INTER>
-11.7423

>  <SCORE.INTER.CONST>
1

>  <SCORE.INTER.POLAR>
0

>  <SCORE.INTER.ROT>
7

>  <SCORE.INTER.SOLV>
13.2295

>  <SCORE.INTER.VDW>
-20.5047

>  <SCORE.INTER.norm>
-0.434899

>  <SCORE.INTRA>
-2.09553

>  <SCORE.INTRA.DIHEDRAL>
-2.65826

>  <SCORE.INTRA.DIHEDRAL.0>
8.34559

>  <SCORE.INTRA.POLAR>
0

>  <SCORE.INTRA.POLAR.0>
0

>  <SCORE.INTRA.REPUL>
0

>  <SCORE.INTRA.REPUL.0>
0

>  <SCORE.INTRA.SOLV>
-0.0347301

>  <SCORE.INTRA.SOLV.lig_0>
-48.829

>  <SCORE.INTRA.VDW>
-0.74903

>  <SCORE.INTRA.VDW.0>
-1.77092

>  <SCORE.INTRA.norm>
-0.0776121

>  <SCORE.RESTR>
0

>  <SCORE.RESTR.CAVITY>
0

>  <SCORE.RESTR.norm>
0

>  <SCORE.SYSTEM>
0

>  <SCORE.SYSTEM.CONST>
0

>  <SCORE.SYSTEM.DIHEDRAL>
0

>  <SCORE.SYSTEM.SOLV>
0

>  <SCORE.SYSTEM.norm>
0

>  <SCORE.heavy>
27

>  <SCORE.norm>
-0.512511

>  <RMSD>
3.967

$$$$
ligand
 OpenBabel11021811503D
libRbt.so/2013.1/901 2013/11/27
 27 29  0  0  0  0  0  0  0  0999 V2000
   45.1513  -26.2091 -104.7162 N   0  0  0  0  0  0  0  0  0  0  0  0
   45.8594  -25.9293 -103.4621 C   0  0  2  0  0  0  0  0  0  0  0  0
   47.0544  -25.0430 -103.7435 C   0  0  0  0  0  0  0  0  0  0  0  0
   47.5839  -24.4190 -102.8362 O   0  0  0  0  0  0  0  0  0  0  0  0
   46.3473  -27.2225 -102.7951 C   0  0  0  0  0  0  0  0  0  0  0  0
   45.1842  -27.9838 -102.1750 C   0  0  0  0  0  0  0  0  0  0  0  0
   45.5810  -29.7344 -101.7989 S   0  0  2  0  0  0  0  0  0  0  0  0
   44.0695  -30.3657 -101.0012 C   0  0  0  0  0  0  0  0  0  0  0  0
   46.5491  -29.3857 -100.3326 C   0  0  0  0  0  0  0  0  0  0  0  0
   47.8949  -30.0607 -100.3205 C   0  0  1  0  0  0  0  0  0  0  0  0
   47.7491  -31.3468 -100.9465 O   0  0  0  0  0  0  0  0  0  0  0  0
   48.6836  -29.2289 -101.2498 C   0  0  1  0  0  0  0  0  0  0  0  0
   49.4621  -28.2901 -100.5096 O   0  0  0  0  0  0  0  0  0  0  0  0
   49.5805  -30.2351 -101.9021 C   0  0  1  0  0  0  0  0  0  0  0  0
   50.7787  -30.4207 -101.1204 O   0  0  0  0  0  0  0  0  0  0  0  0
   48.7705  -31.5653 -101.9521 C   0  0  2  0  0  0  0  0  0  0  0  0
   47.5174  -24.9707 -104.8683 O   0  0  0  0  0  0  0  0  0  0  0  0
   46.2962  -29.9017 -106.3462 N   0  0  0  0  0  0  0  0  0  0  0  0
   46.8388  -29.1413 -105.3637 C   0  0  0  0  0  0  0  0  0  0  0  0
   47.4812  -29.6922 -104.3126 N   0  0  0  0  0  0  0  0  0  0  0  0
   47.5269  -31.0257 -104.1603 C   0  0  0  0  0  0  0  0  0  0  0  0
   46.9262  -31.8735 -105.1617 C   0  0  0  0  0  0  0  0  0  0  0  0
   46.3055  -31.2501 -106.2849 C   0  0  0  0  0  0  0  0  0  0  0  0
   45.7205  -32.0010 -107.2842 N   0  0  0  0  0  0  0  0  0  0  0  0
   47.1053  -33.1407 -104.7708 N   0  0  0  0  0  0  0  0  0  0  0  0
   47.7415  -33.1468 -103.6373 C   0  0  0  0  0  0  0  0  0  0  0  0
   48.0356  -31.8717 -103.2139 N   0  0  0  0  0  0  0  0  0  0  0  0
  2  1  1  6  0  0  0
  2  3  1  0  0  0  0
  2  5  1  0  0  0  0
  3  4  1  0  0  0  0
  3 17  1  0  0  0  0
  5  6  1  0  0  0  0
  7  6  1  1  0  0  0
  7  8  1  0  0  0  0
  7  9  1  0  0  0  0
 10  9  1  6  0  0  0
 10 11  1  0  0  0  0
 10 12  1  0  0  0  0
 11 16  1  0  0  0  0
 12 13  1  1  0  0  0
 12 14  1  0  0  0  0
 14 15  1  1  0  0  0
 14 16  1  0  0  0  0
 16 27  1  6  0  0  0
 18 19  2  0  0  0  0
 18 23  1  0  0  0  0
 19 20  1  0  0  0  0
 20 21  2  0  0  0  0
 21 22  1  0  0  0  0
 21 27  1  0  0  0  0
 22 23  2  0  0  0  0
 22 25  1  0  0  0  0
 23 24  1  0  0  0  0
 25 26  2  0  0  0  0
 26 27  1  0  0  0  0
M  END
>  <CHROM.1>
161.67256890,-73.61964876,163.15922147,177.14725662,-129.80153487,-35.55919596
86.20768840,47.12318748,-29.41263514,-103.06639583,1.86005820,-1.11729853
0.30917694

>  <Name>
ligand

>  <RI>
0

>  <Rbt.Current_Directory>
/home/itssahil/PROJECTS/Mol_Feturizer/New_Systems/rnas/4L81

>  <Rbt.Executable>
rbdock ($Id: //depot/dev/client3/rdock/2013.1/src/exe/rbdock.cxx#4 $)

>  <Rbt.Library>
libRbt.so (2013.1, Build901 2013/11/27)

>  <Rbt.Parameter_File>
/export/apps/rDock/src/rDock_2013.1_src/data/scripts/dock_solv.prm

>  <Rbt.Receptor>
prm/pocket_docking_4.prm

>  <SCORE>
-10.7083

>  <SCORE.INTER>
-9.04533

>  <SCORE.INTER.CONST>
1

>  <SCORE.INTER.POLAR>
0

>  <SCORE.INTER.ROT>
7

>  <SCORE.INTER.SOLV>
16.3801

>  <SCORE.INTER.VDW>
-19.7569

>  <SCORE.INTER.norm>
-0.335012

>  <SCORE.INTRA>
-1.84788

>  <SCORE.INTRA.DIHEDRAL>
2.9612

>  <SCORE.INTRA.DIHEDRAL.0>
8.34559

>  <SCORE.INTRA.POLAR>
0

>  <SCORE.INTRA.POLAR.0>
0

>  <SCORE.INTRA.REPUL>
0

>  <SCORE.INTRA.REPUL.0>
0

>  <SCORE.INTRA.SOLV>
0.0242039

>  <SCORE.INTRA.SOLV.lig_0>
-48.829

>  <SCORE.INTRA.VDW>
-3.34059

>  <SCORE.INTRA.VDW.0>
-1.77092

>  <SCORE.INTRA.norm>
-0.0684402

>  <SCORE.RESTR>
0.184875

>  <SCORE.RESTR.CAVITY>
0.184875

>  <SCORE.RESTR.norm>
0.00684721

>  <SCORE.SYSTEM>
0

>  <SCORE.SYSTEM.CONST>
0

>  <SCORE.SYSTEM.DIHEDRAL>
0

>  <SCORE.SYSTEM.SOLV>
0

>  <SCORE.SYSTEM.norm>
0

>  <SCORE.heavy>
27

>  <SCORE.norm>
-0.396605

>  <RMSD>
4.010

$$$$
ligand
 OpenBabel11021811503D
libRbt.so/2013.1/901 2013/11/27
 27 29  0  0  0  0  0  0  0  0999 V2000
   45.6250  -25.0104 -106.8888 N   0  0  0  0  0  0  0  0  0  0  0  0
   45.9217  -26.1088 -105.9624 C   0  0  2  0  0  0  0  0  0  0  0  0
   44.6261  -26.7199 -105.4718 C   0  0  0  0  0  0  0  0  0  0  0  0
   43.6188  -26.0343 -105.3814 O   0  0  0  0  0  0  0  0  0  0  0  0
   46.7276  -25.6172 -104.7524 C   0  0  0  0  0  0  0  0  0  0  0  0
   47.1013  -26.7790 -103.8427 C   0  0  0  0  0  0  0  0  0  0  0  0
   48.1197  -26.2750 -102.4032 S   0  0  2  0  0  0  0  0  0  0  0  0
   49.7952  -26.0890 -103.0943 C   0  0  0  0  0  0  0  0  0  0  0  0
   48.2799  -27.9208 -101.7144 C   0  0  0  0  0  0  0  0  0  0  0  0
   46.9670  -28.5422 -101.3182 C   0  0  1  0  0  0  0  0  0  0  0  0
   46.5350  -29.3870 -102.3983 O   0  0  0  0  0  0  0  0  0  0  0  0
   47.3532  -29.4398 -100.2124 C   0  0  1  0  0  0  0  0  0  0  0  0
   47.1034  -28.7965  -98.9637 O   0  0  0  0  0  0  0  0  0  0  0  0
   46.4150  -30.5932 -100.3900 C   0  0  1  0  0  0  0  0  0  0  0  0
   45.1752  -30.3431  -99.6959 O   0  0  0  0  0  0  0  0  0  0  0  0
   46.1508  -30.7014 -101.9218 C   0  0  2  0  0  0  0  0  0  0  0  0
   44.5691  -27.9053 -105.1953 O   0  0  0  0  0  0  0  0  0  0  0  0
   50.8919  -32.8267 -103.0186 N   0  0  0  0  0  0  0  0  0  0  0  0
   50.6163  -31.8205 -102.1529 C   0  0  0  0  0  0  0  0  0  0  0  0
   49.3534  -31.3988 -101.9334 N   0  0  0  0  0  0  0  0  0  0  0  0
   48.3294  -31.9075 -102.6379 C   0  0  0  0  0  0  0  0  0  0  0  0
   48.5825  -32.9525 -103.6005 C   0  0  0  0  0  0  0  0  0  0  0  0
   49.9253  -33.4070 -103.7609 C   0  0  0  0  0  0  0  0  0  0  0  0
   50.2365  -34.4097 -104.6566 N   0  0  0  0  0  0  0  0  0  0  0  0
   47.4093  -33.2724 -104.1591 N   0  0  0  0  0  0  0  0  0  0  0  0
   46.4785  -32.5265 -103.6427 C   0  0  0  0  0  0  0  0  0  0  0  0
   46.9839  -31.6697 -102.6929 N   0  0  0  0  0  0  0  0  0  0  0  0
  2  1  1  6  0  0  0
  2  3  1  0  0  0  0
  2  5  1  0  0  0  0
  3  4  1  0  0  0  0
  3 17  1  0  0  0  0
  5  6  1  0  0  0  0
  7  6  1  6  0  0  0
  7  8  1  0  0  0  0
  7  9  1  0  0  0  0
 10  9  1  6  0  0  0
 10 11  1  0  0  0  0
 10 12  1  0  0  0  0
 11 16  1  0  0  0  0
 12 13  1  1  0  0  0
 12 14  1  0  0  0  0
 14 15  1  1  0  0  0
 14 16  1  0  0  0  0
 16 27  1  6  0  0  0
 18 19  2  0  0  0  0
 18 23  1  0  0  0  0
 19 20  1  0  0  0  0
 20 21  2  0  0  0  0
 21 22  1  0  0  0  0
 21 27  1  0  0  0  0
 22 23  2  0  0  0  0
 22 25  1  0  0  0  0
 23 24  1  0  0  0  0
 25 26  2  0  0  0  0
 26 27  1  0  0  0  0
M  END
>  <CHROM.1>
-29.67717654,-176.55952159,177.92529164,-78.72671864,-61.76139868,96.63016041
69.10856104,47.34526375,-29.32817500,-102.98293224,3.14130800,-1.15598139
1.27949697

>  <Name>
ligand

>  <RI>
0

>  <Rbt.Current_Directory>
/home/itssahil/PROJECTS/Mol_Feturizer/New_Systems/rnas/4L81

>  <Rbt.Executable>
rbdock ($Id: //depot/dev/client3/rdock/2013.1/src/exe/rbdock.cxx#4 $)

>  <Rbt.Library>
libRbt.so (2013.1, Build901 2013/11/27)

>  <Rbt.Parameter_File>
/export/apps/rDock/src/rDock_2013.1_src/data/scripts/dock_solv.prm

>  <Rbt.Receptor>
prm/pocket_docking_6.prm

>  <SCORE>
-16.6906

>  <SCORE.INTER>
-14.4342

>  <SCORE.INTER.CONST>
1

>  <SCORE.INTER.POLAR>
0

>  <SCORE.INTER.ROT>
7

>  <SCORE.INTER.SOLV>
15.624

>  <SCORE.INTER.VDW>
-23.0975

>  <SCORE.INTER.norm>
-0.5346

>  <SCORE.INTRA>
-2.25642

>  <SCORE.INTRA.DIHEDRAL>
-1.23139

>  <SCORE.INTRA.DIHEDRAL.0>
8.34559

>  <SCORE.INTRA.POLAR>
0

>  <SCORE.INTRA.POLAR.0>
0

>  <SCORE.INTRA.REPUL>
0

>  <SCORE.INTRA.REPUL.0>
0

>  <SCORE.INTRA.SOLV>
-1.22701

>  <SCORE.INTRA.SOLV.lig_0>
-48.829

>  <SCORE.INTRA.VDW>
-1.02721

>  <SCORE.INTRA.VDW.0>
-1.77092

>  <SCORE.INTRA.norm>
-0.0835709

>  <SCORE.RESTR>
0

>  <SCORE.RESTR.CAVITY>
0

>  <SCORE.RESTR.norm>
0

>  <SCORE.SYSTEM>
0

>  <SCORE.SYSTEM.CONST>
0

>  <SCORE.SYSTEM.DIHEDRAL>
0

>  <SCORE.SYSTEM.SOLV>
0

>  <SCORE.SYSTEM.norm>
0

>  <SCORE.heavy>
27

>  <SCORE.norm>
-0.618171

>  <RMSD>
4.183

$$$$
ligand
 OpenBabel11021811503D
libRbt.so/2013.1/901 2013/11/27
 27 29  0  0  0  0  0  0  0  0999 V2000
   48.5346  -26.4072 -108.6197 N   0  0  0  0  0  0  0  0  0  0  0  0
   48.7723  -27.0889 -107.3425 C   0  0  2  0  0  0  0  0  0  0  0  0
   47.4467  -27.3833 -106.6725 C   0  0  0  0  0  0  0  0  0  0  0  0
   46.6005  -26.5076 -106.5733 O   0  0  0  0  0  0  0  0  0  0  0  0
   49.6243  -26.2284 -106.3996 C   0  0  0  0  0  0  0  0  0  0  0  0
   50.0018  -27.0080 -105.1480 C   0  0  0  0  0  0  0  0  0  0  0  0
   48.6520  -27.0893 -103.9091 S   0  0  2  0  0  0  0  0  0  0  0  0
   48.8326  -25.5441 -102.9608 C   0  0  0  0  0  0  0  0  0  0  0  0
   49.5013  -28.2052 -102.7945 C   0  0  0  0  0  0  0  0  0  0  0  0
   48.6016  -28.8318 -101.7627 C   0  0  1  0  0  0  0  0  0  0  0  0
   47.5855  -29.5755 -102.4564 O   0  0  0  0  0  0  0  0  0  0  0  0
   49.4849  -29.8254 -101.1222 C   0  0  1  0  0  0  0  0  0  0  0  0
   50.0206  -29.2834  -99.9161 O   0  0  0  0  0  0  0  0  0  0  0  0
   48.5387  -30.9418 -100.8050 C   0  0  1  0  0  0  0  0  0  0  0  0
   47.9214  -30.7263  -99.5189 O   0  0  0  0  0  0  0  0  0  0  0  0
   47.4536  -30.9172 -101.9230 C   0  0  2  0  0  0  0  0  0  0  0  0
   47.2005  -28.5022 -106.2573 O   0  0  0  0  0  0  0  0  0  0  0  0
   50.6891  -33.4495 -105.2871 N   0  0  0  0  0  0  0  0  0  0  0  0
   51.0334  -32.5917 -104.2953 C   0  0  0  0  0  0  0  0  0  0  0  0
   50.1098  -32.0442 -103.4779 N   0  0  0  0  0  0  0  0  0  0  0  0
   48.8004  -32.2650 -103.6790 C   0  0  0  0  0  0  0  0  0  0  0  0
   48.3863  -33.1394 -104.7497 C   0  0  0  0  0  0  0  0  0  0  0  0
   49.3986  -33.7409 -105.5551 C   0  0  0  0  0  0  0  0  0  0  0  0
   49.0733  -34.5948 -106.5894 N   0  0  0  0  0  0  0  0  0  0  0  0
   47.0489  -33.1825 -104.7345 N   0  0  0  0  0  0  0  0  0  0  0  0
   46.6130  -32.4211 -103.7754 C   0  0  0  0  0  0  0  0  0  0  0  0
   47.6470  -31.8341 -103.0841 N   0  0  0  0  0  0  0  0  0  0  0  0
  2  1  1  6  0  0  0
  2  3  1  0  0  0  0
  2  5  1  0  0  0  0
  3  4  1  0  0  0  0
  3 17  1  0  0  0  0
  5  6  1  0  0  0  0
  7  6  1  6  0  0  0
  7  8  1  0  0  0  0
  7  9  1  0  0  0  0
 10  9  1  6  0  0  0
 10 11  1  0  0  0  0
 10 12  1  0  0  0  0
 11 16  1  0  0  0  0
 12 13  1  1  0  0  0
 12 14  1  0  0  0  0
 14 15  1  1  0  0  0
 14 16  1  0  0  0  0
 16 27  1  6  0  0  0
 18 19  2  0  0  0  0
 18 23  1  0  0  0  0
 19 20  1  0  0  0  0
 20 21  2  0  0  0  0
 21 22  1  0  0  0  0
 21 27  1  0  0  0  0
 22 23  2  0  0  0  0
 22 25  1  0  0  0  0
 23 24  1  0  0  0  0
 25 26  2  0  0  0  0
 26 27  1  0  0  0  0
M  END
>  <CHROM.1>
-48.26494670,-173.29764038,-79.31681200,-85.03067730,-165.35890185,59.92359079
80.74677910,48.63367610,-29.74859608,-104.01045894,2.83461245,-1.50850123
0.85319224

>  <Name>
ligand

>  <RI>
0

>  <Rbt.Current_Directory>
/home/itssahil/PROJECTS/Mol_Feturizer/New_Systems/rnas/4L81

>  <Rbt.Executable>
rbdock ($Id: //depot/dev/client3/rdock/2013.1/src/exe/rbdock.cxx#4 $)

>  <Rbt.Library>
libRbt.so (2013.1, Build901 2013/11/27)

>  <Rbt.Parameter_File>
/export/apps/rDock/src/rDock_2013.1_src/data/scripts/dock_solv.prm

>  <Rbt.Receptor>
prm/pocket_docking_8.prm

>  <SCORE>
-12.0794

>  <SCORE.INTER>
-8.96735

>  <SCORE.INTER.CONST>
1

>  <SCORE.INTER.POLAR>
0

>  <SCORE.INTER.ROT>
7

>  <SCORE.INTER.SOLV>
10.4549

>  <SCORE.INTER.VDW>
-17.7299

>  <SCORE.INTER.norm>
-0.332124

>  <SCORE.INTRA>
-3.23123

>  <SCORE.INTRA.DIHEDRAL>
-1.60009

>  <SCORE.INTRA.DIHEDRAL.0>
8.34559

>  <SCORE.INTRA.POLAR>
0

>  <SCORE.INTRA.POLAR.0>
0

>  <SCORE.INTRA.REPUL>
0

>  <SCORE.INTRA.REPUL.0>
0

>  <SCORE.INTRA.SOLV>
-1.1633

>  <SCORE.INTRA.SOLV.lig_0>
-48.829

>  <SCORE.INTRA.VDW>
-1.84954

>  <SCORE.INTRA.VDW.0>
-1.77092

>  <SCORE.INTRA.norm>
-0.119675

>  <SCORE.RESTR>
0.119186

>  <SCORE.RESTR.CAVITY>
0.119186

>  <SCORE.RESTR.norm>
0.00441429

>  <SCORE.SYSTEM>
0

>  <SCORE.SYSTEM.CONST>
0

>  <SCORE.SYSTEM.DIHEDRAL>
0

>  <SCORE.SYSTEM.SOLV>
0

>  <SCORE.SYSTEM.norm>
0

>  <SCORE.heavy>
27

>  <SCORE.norm>
-0.447385

>  <RMSD>
4.295

$$$$
ligand
 OpenBabel11021811503D
libRbt.so/2013.1/901 2013/11/27
 27 29  0  0  0  0  0  0  0  0999 V2000
   44.4034  -28.7590 -106.0784 N   0  0  0  0  0  0  0  0  0  0  0  0
   45.2770  -28.2364 -105.0218 C   0  0  2  0  0  0  0  0  0  0  0  0
   44.6675  -26.9791 -104.4382 C   0  0  0  0  0  0  0  0  0  0  0  0
   44.4287  -26.0209 -105.1575 O   0  0  0  0  0  0  0  0  0  0  0  0
   46.6737  -27.9046 -105.5646 C   0  0  0  0  0  0  0  0  0  0  0  0
   47.7094  -27.9368 -104.4496 C   0  0  0  0  0  0  0  0  0  0  0  0
   47.4655  -26.6220 -103.1945 S   0  0  2  0  0  0  0  0  0  0  0  0
   49.0640  -25.7487 -103.1571 C   0  0  0  0  0  0  0  0  0  0  0  0
   47.6934  -27.6886 -101.7736 C   0  0  0  0  0  0  0  0  0  0  0  0
   46.4785  -28.5092 -101.4309 C   0  0  1  0  0  0  0  0  0  0  0  0
   46.3064  -29.4951 -102.4632 O   0  0  0  0  0  0  0  0  0  0  0  0
   46.9095  -29.2382 -100.2224 C   0  0  1  0  0  0  0  0  0  0  0  0
   46.4329  -28.5625  -99.0598 O   0  0  0  0  0  0  0  0  0  0  0  0
   46.2098  -30.5536 -100.3720 C   0  0  1  0  0  0  0  0  0  0  0  0
   44.8850  -30.4848  -99.8049 O   0  0  0  0  0  0  0  0  0  0  0  0
   46.1156  -30.8193 -101.9046 C   0  0  2  0  0  0  0  0  0  0  0  0
   44.3802  -26.9248 -103.2552 O   0  0  0  0  0  0  0  0  0  0  0  0
   51.2392  -32.1134 -102.4261 N   0  0  0  0  0  0  0  0  0  0  0  0
   50.7101  -31.1140 -101.6785 C   0  0  0  0  0  0  0  0  0  0  0  0
   49.3776  -30.9162 -101.5988 N   0  0  0  0  0  0  0  0  0  0  0  0
   48.5306  -31.6546 -102.3343 C   0  0  0  0  0  0  0  0  0  0  0  0
   49.0536  -32.7033 -103.1764 C   0  0  0  0  0  0  0  0  0  0  0  0
   50.4645  -32.9142 -103.1881 C   0  0  0  0  0  0  0  0  0  0  0  0
   51.0309  -33.9059 -103.9630 N   0  0  0  0  0  0  0  0  0  0  0  0
   48.0133  -33.2733 -103.7957 N   0  0  0  0  0  0  0  0  0  0  0  0
   46.9210  -32.6748 -103.4239 C   0  0  0  0  0  0  0  0  0  0  0  0
   47.1755  -31.6724 -102.5172 N   0  0  0  0  0  0  0  0  0  0  0  0
  2  1  1  6  0  0  0
  2  3  1  0  0  0  0
  2  5  1  0  0  0  0
  3  4  1  0  0  0  0
  3 17  1  0  0  0  0
  5  6  1  0  0  0  0
  7  6  1  6  0  0  0
  7  8  1  0  0  0  0
  7  9  1  0  0  0  0
 10  9  1  6  0  0  0
 10 11  1  0  0  0  0
 10 12  1  0  0  0  0
 11 16  1  0  0  0  0
 12 13  1  1  0  0  0
 12 14  1  0  0  0  0
 14 15  1  6  0  0  0
 14 16  1  0  0  0  0
 16 27  1  6  0  0  0
 18 19  2  0  0  0  0
 18 23  1  0  0  0  0
 19 20  1  0  0  0  0
 20 21  2  0  0  0  0
 21 22  1  0  0  0  0
 21 27  1  0  0  0  0
 22 23  2  0  0  0  0
 22 25  1  0  0  0  0
 23 24  1  0  0  0  0
 25 26  2  0  0  0  0
 26 27  1  0  0  0  0
M  END
>  <CHROM.1>
-58.24241859,-156.06915323,-66.02390037,-124.63616397,-79.40459516,69.86354749
69.03510101,47.25992242,-29.51848892,-102.79766968,-2.68300882,-0.88423035
1.91291692

>  <Name>
ligand

>  <RI>
0

>  <Rbt.Current_Directory>
/home/itssahil/PROJECTS/Mol_Feturizer/New_Systems/rnas/4L81

>  <Rbt.Executable>
rbdock ($Id: //depot/dev/client3/rdock/2013.1/src/exe/rbdock.cxx#4 $)

>  <Rbt.Library>
libRbt.so (2013.1, Build901 2013/11/27)

>  <Rbt.Parameter_File>
/export/apps/rDock/src/rDock_2013.1_src/data/scripts/dock_solv.prm

>  <Rbt.Receptor>
prm/pocket_docking_8.prm

>  <SCORE>
-15.3548

>  <SCORE.INTER>
-12.7771

>  <SCORE.INTER.CONST>
1

>  <SCORE.INTER.POLAR>
0

>  <SCORE.INTER.ROT>
7

>  <SCORE.INTER.SOLV>
15.8884

>  <SCORE.INTER.VDW>
-22.0809

>  <SCORE.INTER.norm>
-0.473226

>  <SCORE.INTRA>
-2.57766

>  <SCORE.INTRA.DIHEDRAL>
1.97599

>  <SCORE.INTRA.DIHEDRAL.0>
8.34559

>  <SCORE.INTRA.POLAR>
0

>  <SCORE.INTRA.POLAR.0>
0

>  <SCORE.INTRA.REPUL>
0

>  <SCORE.INTRA.REPUL.0>
0

>  <SCORE.INTRA.SOLV>
-0.593657

>  <SCORE.INTRA.SOLV.lig_0>
-48.829

>  <SCORE.INTRA.VDW>
-3.26882

>  <SCORE.INTRA.VDW.0>
-1.77092

>  <SCORE.INTRA.norm>
-0.0954689

>  <SCORE.RESTR>
0

>  <SCORE.RESTR.CAVITY>
0

>  <SCORE.RESTR.norm>
0

>  <SCORE.SYSTEM>
0

>  <SCORE.SYSTEM.CONST>
0

>  <SCORE.SYSTEM.DIHEDRAL>
0

>  <SCORE.SYSTEM.SOLV>
0

>  <SCORE.SYSTEM.norm>
0

>  <SCORE.heavy>
27

>  <SCORE.norm>
-0.568695

>  <RMSD>
4.336

$$$$
ligand
 OpenBabel11021811503D
libRbt.so/2013.1/901 2013/11/27
 27 29  0  0  0  0  0  0  0  0999 V2000
   45.9750  -26.6362 -105.8181 N   0  0  0  0  0  0  0  0  0  0  0  0
   45.9111  -26.9786 -104.3928 C   0  0  2  0  0  0  0  0  0  0  0  0
   44.4864  -27.3323 -104.0216 C   0  0  0  0  0  0  0  0  0  0  0  0
   44.2658  -28.1683 -103.1583 O   0  0  0  0  0  0  0  0  0  0  0  0
   46.3763  -25.8084 -103.5155 C   0  0  0  0  0  0  0  0  0  0  0  0
   47.8725  -25.5765 -103.6713 C   0  0  0  0  0  0  0  0  0  0  0  0
   48.8823  -26.5177 -102.4638 S   0  0  2  0  0  0  0  0  0  0  0  0
   50.5904  -26.3087 -103.0624 C   0  0  0  0  0  0  0  0  0  0  0  0
   48.5345  -28.1307 -103.1608 C   0  0  0  0  0  0  0  0  0  0  0  0
   47.4891  -28.9055 -102.4033 C   0  0  1  0  0  0  0  0  0  0  0  0
   46.9615  -29.9120 -103.2838 O   0  0  0  0  0  0  0  0  0  0  0  0
   48.2862  -29.6156 -101.3844 C   0  0  1  0  0  0  0  0  0  0  0  0
   48.2406  -28.8961 -100.1533 O   0  0  0  0  0  0  0  0  0  0  0  0
   47.5513  -30.9129 -101.2459 C   0  0  1  0  0  0  0  0  0  0  0  0
   46.4952  -30.7898 -100.2708 O   0  0  0  0  0  0  0  0  0  0  0  0
   46.9433  -31.2151 -102.6484 C   0  0  2  0  0  0  0  0  0  0  0  0
   43.5504  -26.7635 -104.5559 O   0  0  0  0  0  0  0  0  0  0  0  0
   51.4460  -33.7755 -103.8181 N   0  0  0  0  0  0  0  0  0  0  0  0
   51.2132  -32.9470 -102.7706 C   0  0  0  0  0  0  0  0  0  0  0  0
   50.0025  -32.3887 -102.5625 N   0  0  0  0  0  0  0  0  0  0  0  0
   49.0053  -32.5677 -103.4440 C   0  0  0  0  0  0  0  0  0  0  0  0
   49.2215  -33.4093 -104.5961 C   0  0  0  0  0  0  0  0  0  0  0  0
   50.4998  -34.0245 -104.7480 C   0  0  0  0  0  0  0  0  0  0  0  0
   50.7715  -34.8489 -105.8210 N   0  0  0  0  0  0  0  0  0  0  0  0
   48.0865  -33.4141 -105.3050 N   0  0  0  0  0  0  0  0  0  0  0  0
   47.2131  -32.6587 -104.7083 C   0  0  0  0  0  0  0  0  0  0  0  0
   47.7193  -32.1150 -103.5508 N   0  0  0  0  0  0  0  0  0  0  0  0
  2  1  1  6  0  0  0
  2  3  1  0  0  0  0
  2  5  1  0  0  0  0
  3  4  1  0  0  0  0
  3 17  1  0  0  0  0
  5  6  1  0  0  0  0
  7  6  1  6  0  0  0
  7  8  1  0  0  0  0
  7  9  1  0  0  0  0
 10  9  1  6  0  0  0
 10 11  1  0  0  0  0
 10 12  1  0  0  0  0
 11 16  1  0  0  0  0
 12 13  1  1  0  0  0
 12 14  1  0  0  0  0
 14 15  1  1  0  0  0
 14 16  1  0  0  0  0
 16 27  1  6  0  0  0
 18 19  2  0  0  0  0
 18 23  1  0  0  0  0
 19 20  1  0  0  0  0
 20 21  2  0  0  0  0
 21 22  1  0  0  0  0
 21 27  1  0  0  0  0
 22 23  2  0  0  0  0
 22 25  1  0  0  0  0
 23 24  1  0  0  0  0
 25 26  2  0  0  0  0
 26 27  1  0  0  0  0
M  END
>  <CHROM.1>
147.35692089,-69.32479601,-90.75540197,169.82778790,-100.96212015,159.58006263
101.43425398,47.89862783,-29.76276999,-103.27453998,2.08679986,-0.39635911
0.29543558

>  <Name>
ligand

>  <RI>
0

>  <Rbt.Current_Directory>
/home/itssahil/PROJECTS/Mol_Feturizer/New_Systems/rnas/4L81

>  <Rbt.Executable>
rbdock ($Id: //depot/dev/client3/rdock/2013.1/src/exe/rbdock.cxx#4 $)

>  <Rbt.Library>
libRbt.so (2013.1, Build901 2013/11/27)

>  <Rbt.Parameter_File>
/export/apps/rDock/src/rDock_2013.1_src/data/scripts/dock_solv.prm

>  <Rbt.Receptor>
prm/pocket_docking_6.prm

>  <SCORE>
-13.0939

>  <SCORE.INTER>
-12.3577

>  <SCORE.INTER.CONST>
1

>  <SCORE.INTER.POLAR>
0

>  <SCORE.INTER.ROT>
7

>  <SCORE.INTER.SOLV>
8.66593

>  <SCORE.INTER.VDW>
-19.3938

>  <SCORE.INTER.norm>
-0.457692

>  <SCORE.INTRA>
-0.736221

>  <SCORE.INTRA.DIHEDRAL>
1.94848

>  <SCORE.INTRA.DIHEDRAL.0>
8.34559

>  <SCORE.INTRA.POLAR>
0

>  <SCORE.INTRA.POLAR.0>
0

>  <SCORE.INTRA.REPUL>
0

>  <SCORE.INTRA.REPUL.0>
0

>  <SCORE.INTRA.SOLV>
0.600004

>  <SCORE.INTRA.SOLV.lig_0>
-48.829

>  <SCORE.INTRA.VDW>
-2.01046

>  <SCORE.INTRA.VDW.0>
-1.77092

>  <SCORE.INTRA.norm>
-0.0272675

>  <SCORE.RESTR>
0

>  <SCORE.RESTR.CAVITY>
0

>  <SCORE.RESTR.norm>
0

>  <SCORE.SYSTEM>
0

>  <SCORE.SYSTEM.CONST>
0

>  <SCORE.SYSTEM.DIHEDRAL>
0

>  <SCORE.SYSTEM.SOLV>
0

>  <SCORE.SYSTEM.norm>
0

>  <SCORE.heavy>
27

>  <SCORE.norm>
-0.484959

>  <RMSD>
4.360

$$$$
ligand
 OpenBabel11021811503D
libRbt.so/2013.1/901 2013/11/27
 27 29  0  0  0  0  0  0  0  0999 V2000
   47.1991  -23.1534 -105.3266 N   0  0  0  0  0  0  0  0  0  0  0  0
   47.3175  -24.1709 -104.2762 C   0  0  2  0  0  0  0  0  0  0  0  0
   48.2490  -23.6717 -103.1918 C   0  0  0  0  0  0  0  0  0  0  0  0
   47.8859  -23.6643 -102.0253 O   0  0  0  0  0  0  0  0  0  0  0  0
   47.8686  -25.4898 -104.8350 C   0  0  0  0  0  0  0  0  0  0  0  0
   47.6656  -26.6253 -103.8420 C   0  0  0  0  0  0  0  0  0  0  0  0
   48.7169  -26.4781 -102.3465 S   0  0  2  0  0  0  0  0  0  0  0  0
   50.4172  -26.5068 -103.0005 C   0  0  0  0  0  0  0  0  0  0  0  0
   48.5733  -28.1958 -101.8589 C   0  0  0  0  0  0  0  0  0  0  0  0
   47.1711  -28.6075 -101.4968 C   0  0  1  0  0  0  0  0  0  0  0  0
   46.5795  -29.2237 -102.6532 O   0  0  0  0  0  0  0  0  0  0  0  0
   47.3930  -29.6861 -100.5143 C   0  0  1  0  0  0  0  0  0  0  0  0
   47.2787  -29.1612  -99.1926 O   0  0  0  0  0  0  0  0  0  0  0  0
   46.2547  -30.6176 -100.7947 C   0  0  1  0  0  0  0  0  0  0  0  0
   45.0895  -30.2280 -100.0384 O   0  0  0  0  0  0  0  0  0  0  0  0
   45.9613  -30.4920 -102.3199 C   0  0  2  0  0  0  0  0  0  0  0  0
   49.3777  -23.3053 -103.4689 O   0  0  0  0  0  0  0  0  0  0  0  0
   46.4708  -32.6559 -107.1424 N   0  0  0  0  0  0  0  0  0  0  0  0
   45.6354  -31.6560 -106.7680 C   0  0  0  0  0  0  0  0  0  0  0  0
   45.6339  -31.1654 -105.5109 N   0  0  0  0  0  0  0  0  0  0  0  0
   46.4049  -31.7171 -104.5597 C   0  0  0  0  0  0  0  0  0  0  0  0
   47.2801  -32.8114 -104.9044 C   0  0  0  0  0  0  0  0  0  0  0  0
   47.2905  -33.2624 -106.2578 C   0  0  0  0  0  0  0  0  0  0  0  0
   48.1105  -34.2978 -106.6583 N   0  0  0  0  0  0  0  0  0  0  0  0
   47.9238  -33.1737 -103.7885 N   0  0  0  0  0  0  0  0  0  0  0  0
   47.5238  -32.4211 -102.8072 C   0  0  0  0  0  0  0  0  0  0  0  0
   46.5924  -31.4983 -103.2229 N   0  0  0  0  0  0  0  0  0  0  0  0
  2  1  1  6  0  0  0
  2  3  1  0  0  0  0
  2  5  1  0  0  0  0
  3  4  1  0  0  0  0
  3 17  1  0  0  0  0
  5  6  1  0  0  0  0
  7  6  1  6  0  0  0
  7  8  1  0  0  0  0
  7  9  1  0  0  0  0
 10  9  1  6  0  0  0
 10 11  1  0  0  0  0
 10 12  1  0  0  0  0
 11 16  1  0  0  0  0
 12 13  1  1  0  0  0
 12 14  1  0  0  0  0
 14 15  1  1  0  0  0
 14 16  1  0  0  0  0
 16 27  1  6  0  0  0
 18 19  2  0  0  0  0
 18 23  1  0  0  0  0
 19 20  1  0  0  0  0
 20 21  2  0  0  0  0
 21 22  1  0  0  0  0
 21 27  1  0  0  0  0
 22 23  2  0  0  0  0
 22 25  1  0  0  0  0
 23 24  1  0  0  0  0
 25 26  2  0  0  0  0
 26 27  1  0  0  0  0
M  END
>  <CHROM.1>
126.75579564,-165.89028286,-69.48908428,-60.25257744,-63.98707555,96.68745699
-74.29772643,47.41314090,-28.80659890,-103.31493003,-0.51533339,-1.36350760
-1.89513150

>  <Name>
ligand

>  <RI>
0

>  <Rbt.Current_Directory>
/home/itssahil/PROJECTS/Mol_Feturizer/New_Systems/rnas/4L81

>  <Rbt.Executable>
rbdock ($Id: //depot/dev/client3/rdock/2013.1/src/exe/rbdock.cxx#4 $)

>  <Rbt.Library>
libRbt.so (2013.1, Build901 2013/11/27)

>  <Rbt.Parameter_File>
/export/apps/rDock/src/rDock_2013.1_src/data/scripts/dock_solv.prm

>  <Rbt.Receptor>
prm/pocket_docking_8.prm

>  <SCORE>
-13.4932

>  <SCORE.INTER>
-12.3421

>  <SCORE.INTER.CONST>
1

>  <SCORE.INTER.POLAR>
0

>  <SCORE.INTER.ROT>
7

>  <SCORE.INTER.SOLV>
11.6683

>  <SCORE.INTER.VDW>
-20.3842

>  <SCORE.INTER.norm>
-0.457117

>  <SCORE.INTRA>
-1.15109

>  <SCORE.INTRA.DIHEDRAL>
-0.329467

>  <SCORE.INTRA.DIHEDRAL.0>
8.34559

>  <SCORE.INTRA.POLAR>
0

>  <SCORE.INTRA.POLAR.0>
0

>  <SCORE.INTRA.REPUL>
0

>  <SCORE.INTRA.REPUL.0>
0

>  <SCORE.INTRA.SOLV>
-1.14194

>  <SCORE.INTRA.SOLV.lig_0>
-48.829

>  <SCORE.INTRA.VDW>
-0.415386

>  <SCORE.INTRA.VDW.0>
-1.77092

>  <SCORE.INTRA.norm>
-0.0426329

>  <SCORE.RESTR>
0

>  <SCORE.RESTR.CAVITY>
0

>  <SCORE.RESTR.norm>
0

>  <SCORE.SYSTEM>
0

>  <SCORE.SYSTEM.CONST>
0

>  <SCORE.SYSTEM.DIHEDRAL>
0

>  <SCORE.SYSTEM.SOLV>
0

>  <SCORE.SYSTEM.norm>
0

>  <SCORE.heavy>
27

>  <SCORE.norm>
-0.499749

>  <RMSD>
4.360

$$$$
ligand
 OpenBabel11021811503D
libRbt.so/2013.1/901 2013/11/27
 27 29  0  0  0  0  0  0  0  0999 V2000
   46.3955  -26.3130 -107.8188 N   0  0  0  0  0  0  0  0  0  0  0  0
   46.3555  -26.7805 -106.4286 C   0  0  2  0  0  0  0  0  0  0  0  0
   45.6508  -25.7517 -105.5697 C   0  0  0  0  0  0  0  0  0  0  0  0
   44.7164  -26.0834 -104.8558 O   0  0  0  0  0  0  0  0  0  0  0  0
   47.7686  -27.0057 -105.8738 C   0  0  0  0  0  0  0  0  0  0  0  0
   47.7132  -27.6670 -104.5039 C   0  0  0  0  0  0  0  0  0  0  0  0
   47.3603  -26.4891 -103.1433 S   0  0  2  0  0  0  0  0  0  0  0  0
   48.8909  -25.5110 -103.0012 C   0  0  0  0  0  0  0  0  0  0  0  0
   47.6486  -27.6583 -101.8172 C   0  0  0  0  0  0  0  0  0  0  0  0
   46.4427  -28.4903 -101.4702 C   0  0  1  0  0  0  0  0  0  0  0  0
   46.2790  -29.4808 -102.4993 O   0  0  0  0  0  0  0  0  0  0  0  0
   46.8830  -29.2113 -100.2603 C   0  0  1  0  0  0  0  0  0  0  0  0
   46.4014  -28.5371  -99.0988 O   0  0  0  0  0  0  0  0  0  0  0  0
   46.1965  -30.5342 -100.4049 C   0  0  1  0  0  0  0  0  0  0  0  0
   44.8720  -30.4772  -99.8359 O   0  0  0  0  0  0  0  0  0  0  0  0
   46.1027  -30.8053 -101.9365 C   0  0  2  0  0  0  0  0  0  0  0  0
   46.0302  -24.5938 -105.5581 O   0  0  0  0  0  0  0  0  0  0  0  0
   51.2154  -32.1916 -102.3055 N   0  0  0  0  0  0  0  0  0  0  0  0
   50.6750  -31.2215 -101.5279 C   0  0  0  0  0  0  0  0  0  0  0  0
   49.3449  -30.9964 -101.4954 N   0  0  0  0  0  0  0  0  0  0  0  0
   48.5158  -31.6738 -102.3062 C   0  0  0  0  0  0  0  0  0  0  0  0
   49.0532  -32.6878 -103.1810 C   0  0  0  0  0  0  0  0  0  0  0  0
   50.4584  -32.9315 -103.1431 C   0  0  0  0  0  0  0  0  0  0  0  0
   51.0372  -33.8934 -103.9459 N   0  0  0  0  0  0  0  0  0  0  0  0
   48.0295  -33.1987 -103.8752 N   0  0  0  0  0  0  0  0  0  0  0  0
   46.9349  -32.5952 -103.5188 C   0  0  0  0  0  0  0  0  0  0  0  0
   47.1702  -31.6493 -102.5485 N   0  0  0  0  0  0  0  0  0  0  0  0
  2  1  1  6  0  0  0
  2  3  1  0  0  0  0
  2  5  1  0  0  0  0
  3  4  1  0  0  0  0
  3 17  1  0  0  0  0
  5  6  1  0  0  0  0
  7  6  1  6  0  0  0
  7  8  1  0  0  0  0
  7  9  1  0  0  0  0
 10  9  1  6  0  0  0
 10 11  1  0  0  0  0
 10 12  1  0  0  0  0
 11 16  1  0  0  0  0
 12 13  1  1  0  0  0
 12 14  1  0  0  0  0
 14 15  1  6  0  0  0
 14 16  1  0  0  0  0
 16 27  1  6  0  0  0
 18 19  2  0  0  0  0
 18 23  1  0  0  0  0
 19 20  1  0  0  0  0
 20 21  2  0  0  0  0
 21 22  1  0  0  0  0
 21 27  1  0  0  0  0
 22 23  2  0  0  0  0
 22 25  1  0  0  0  0
 23 24  1  0  0  0  0
 25 26  2  0  0  0  0
 26 27  1  0  0  0  0
M  END
>  <CHROM.1>
127.24471550,-172.30754131,-80.34628024,-71.08487780,-85.61614084,75.23701166
73.63343794,47.49098801,-29.18694956,-103.02886162,-2.18357257,-0.92095482
2.21240285

>  <Name>
ligand

>  <RI>
0

>  <Rbt.Current_Directory>
/home/itssahil/PROJECTS/Mol_Feturizer/New_Systems/rnas/4L81

>  <Rbt.Executable>
rbdock ($Id: //depot/dev/client3/rdock/2013.1/src/exe/rbdock.cxx#4 $)

>  <Rbt.Library>
libRbt.so (2013.1, Build901 2013/11/27)

>  <Rbt.Parameter_File>
/export/apps/rDock/src/rDock_2013.1_src/data/scripts/dock_solv.prm

>  <Rbt.Receptor>
prm/pocket_docking_4.prm

>  <SCORE>
-15.5354

>  <SCORE.INTER>
-11.9838

>  <SCORE.INTER.CONST>
1

>  <SCORE.INTER.POLAR>
0

>  <SCORE.INTER.ROT>
7

>  <SCORE.INTER.SOLV>
14.9757

>  <SCORE.INTER.VDW>
-21.2478

>  <SCORE.INTER.norm>
-0.443843

>  <SCORE.INTRA>
-3.55161

>  <SCORE.INTRA.DIHEDRAL>
-1.72313

>  <SCORE.INTRA.DIHEDRAL.0>
8.34559

>  <SCORE.INTRA.POLAR>
0

>  <SCORE.INTRA.POLAR.0>
0

>  <SCORE.INTRA.REPUL>
0

>  <SCORE.INTRA.REPUL.0>
0

>  <SCORE.INTRA.SOLV>
-1.12364

>  <SCORE.INTRA.SOLV.lig_0>
-48.829

>  <SCORE.INTRA.VDW>
-2.12822

>  <SCORE.INTRA.VDW.0>
-1.77092

>  <SCORE.INTRA.norm>
-0.131541

>  <SCORE.RESTR>
0

>  <SCORE.RESTR.CAVITY>
0

>  <SCORE.RESTR.norm>
0

>  <SCORE.SYSTEM>
0

>  <SCORE.SYSTEM.CONST>
0

>  <SCORE.SYSTEM.DIHEDRAL>
0

>  <SCORE.SYSTEM.SOLV>
0

>  <SCORE.SYSTEM.norm>
0

>  <SCORE.heavy>
27

>  <SCORE.norm>
-0.575384

>  <RMSD>
4.440

$$$$
ligand
 OpenBabel11021811503D
libRbt.so/2013.1/901 2013/11/27
 27 29  0  0  0  0  0  0  0  0999 V2000
   47.0749  -32.4513 -106.6547 N   0  0  0  0  0  0  0  0  0  0  0  0
   48.0431  -31.4723 -106.1478 C   0  0  2  0  0  0  0  0  0  0  0  0
   47.9990  -30.2265 -107.0073 C   0  0  0  0  0  0  0  0  0  0  0  0
   48.1723  -30.3061 -108.2141 O   0  0  0  0  0  0  0  0  0  0  0  0
   49.4702  -32.0368 -106.1655 C   0  0  0  0  0  0  0  0  0  0  0  0
   49.7180  -32.9201 -104.9509 C   0  0  0  0  0  0  0  0  0  0  0  0
   51.4760  -33.4028 -104.7514 S   0  0  2  0  0  0  0  0  0  0  0  0
   51.4873  -35.1855 -105.1276 C   0  0  0  0  0  0  0  0  0  0  0  0
   51.4334  -33.4923 -102.9628 C   0  0  0  0  0  0  0  0  0  0  0  0
   51.5414  -32.1516 -102.2863 C   0  0  1  0  0  0  0  0  0  0  0  0
   50.5096  -31.3041 -102.8192 O   0  0  0  0  0  0  0  0  0  0  0  0
   51.1558  -32.4578 -100.8952 C   0  0  1  0  0  0  0  0  0  0  0  0
   52.3277  -32.6373 -100.1016 O   0  0  0  0  0  0  0  0  0  0  0  0
   50.4407  -31.2107 -100.4764 C   0  0  1  0  0  0  0  0  0  0  0  0
   51.3783  -30.2447  -99.9576 O   0  0  0  0  0  0  0  0  0  0  0  0
   49.7621  -30.6509 -101.7625 C   0  0  2  0  0  0  0  0  0  0  0  0
   47.7580  -29.1412 -106.5084 O   0  0  0  0  0  0  0  0  0  0  0  0
   44.5957  -29.6705 -101.0244 N   0  0  0  0  0  0  0  0  0  0  0  0
   45.6490  -28.9850 -100.5160 C   0  0  0  0  0  0  0  0  0  0  0  0
   46.9225  -29.3147 -100.8169 N   0  0  0  0  0  0  0  0  0  0  0  0
   47.1910  -30.3966 -101.5658 C   0  0  0  0  0  0  0  0  0  0  0  0
   46.1004  -31.1801 -102.0943 C   0  0  0  0  0  0  0  0  0  0  0  0
   44.7686  -30.7637 -101.7971 C   0  0  0  0  0  0  0  0  0  0  0  0
   43.6792  -31.4611 -102.2783 N   0  0  0  0  0  0  0  0  0  0  0  0
   46.6357  -32.1898 -102.7904 N   0  0  0  0  0  0  0  0  0  0  0  0
   47.9312  -32.1036 -102.7306 C   0  0  0  0  0  0  0  0  0  0  0  0
   48.3335  -31.0132 -101.9952 N   0  0  0  0  0  0  0  0  0  0  0  0
  2  1  1  6  0  0  0
  2  3  1  0  0  0  0
  2  5  1  0  0  0  0
  3  4  1  0  0  0  0
  3 17  1  0  0  0  0
  5  6  1  0  0  0  0
  7  6  1  6  0  0  0
  7  8  1  0  0  0  0
  7  9  1  0  0  0  0
 10  9  1  6  0  0  0
 10 11  1  0  0  0  0
 10 12  1  0  0  0  0
 11 16  1  0  0  0  0
 12 13  1  1  0  0  0
 12 14  1  0  0  0  0
 14 15  1  6  0  0  0
 14 16  1  0  0  0  0
 16 27  1  1  0  0  0
 18 19  2  0  0  0  0
 18 23  1  0  0  0  0
 19 20  1  0  0  0  0
 20 21  2  0  0  0  0
 21 22  1  0  0  0  0
 21 27  1  0  0  0  0
 22 23  2  0  0  0  0
 22 25  1  0  0  0  0
 23 24  1  0  0  0  0
 25 26  2  0  0  0  0
 26 27  1  0  0  0  0
M  END
>  <CHROM.1>
-55.72073080,-81.17014611,-170.33263284,-110.25998527,-80.10259229,54.49631408
-158.94090438,48.79521806,-31.52793946,-103.24246205,2.80562195,-0.40936206
1.42296866

>  <Name>
ligand

>  <RI>
0

>  <Rbt.Current_Directory>
/home/itssahil/PROJECTS/Mol_Feturizer/New_Systems/rnas/4L81

>  <Rbt.Executable>
rbdock ($Id: //depot/dev/client3/rdock/2013.1/src/exe/rbdock.cxx#4 $)

>  <Rbt.Library>
libRbt.so (2013.1, Build901 2013/11/27)

>  <Rbt.Parameter_File>
/export/apps/rDock/src/rDock_2013.1_src/data/scripts/dock_solv.prm

>  <Rbt.Receptor>
prm/pocket_docking_6.prm

>  <SCORE>
-14.6

>  <SCORE.INTER>
-13.6024

>  <SCORE.INTER.CONST>
1

>  <SCORE.INTER.POLAR>
0

>  <SCORE.INTER.ROT>
7

>  <SCORE.INTER.SOLV>
17.1657

>  <SCORE.INTER.VDW>
-23.0568

>  <SCORE.INTER.norm>
-0.503794

>  <SCORE.INTRA>
-0.997574

>  <SCORE.INTRA.DIHEDRAL>
0.687135

>  <SCORE.INTRA.DIHEDRAL.0>
8.34559

>  <SCORE.INTRA.POLAR>
0

>  <SCORE.INTRA.POLAR.0>
0

>  <SCORE.INTRA.REPUL>
0

>  <SCORE.INTRA.REPUL.0>
0

>  <SCORE.INTRA.SOLV>
-0.526714

>  <SCORE.INTRA.SOLV.lig_0>
-48.829

>  <SCORE.INTRA.VDW>
-1.07779

>  <SCORE.INTRA.VDW.0>
-1.77092

>  <SCORE.INTRA.norm>
-0.0369472

>  <SCORE.RESTR>
0

>  <SCORE.RESTR.CAVITY>
0

>  <SCORE.RESTR.norm>
0

>  <SCORE.SYSTEM>
0

>  <SCORE.SYSTEM.CONST>
0

>  <SCORE.SYSTEM.DIHEDRAL>
0

>  <SCORE.SYSTEM.SOLV>
0

>  <SCORE.SYSTEM.norm>
0

>  <SCORE.heavy>
27

>  <SCORE.norm>
-0.540741

>  <RMSD>
4.448

$$$$
ligand
 OpenBabel11021811503D
libRbt.so/2013.1/901 2013/11/27
 27 29  0  0  0  0  0  0  0  0999 V2000
   47.2472  -26.9108 -107.9800 N   0  0  0  0  0  0  0  0  0  0  0  0
   47.0048  -27.2534 -106.5740 C   0  0  2  0  0  0  0  0  0  0  0  0
   46.1820  -26.1618 -105.9227 C   0  0  0  0  0  0  0  0  0  0  0  0
   46.6026  -25.0153 -105.8842 O   0  0  0  0  0  0  0  0  0  0  0  0
   48.3218  -27.4095 -105.8017 C   0  0  0  0  0  0  0  0  0  0  0  0
   48.0678  -27.9541 -104.4032 C   0  0  0  0  0  0  0  0  0  0  0  0
   47.4808  -26.6787 -103.2234 S   0  0  2  0  0  0  0  0  0  0  0  0
   48.9215  -25.5846 -103.0067 C   0  0  0  0  0  0  0  0  0  0  0  0
   47.6725  -27.6909 -101.7580 C   0  0  0  0  0  0  0  0  0  0  0  0
   46.4565  -28.5148 -101.4274 C   0  0  1  0  0  0  0  0  0  0  0  0
   46.2974  -29.5011 -102.4613 O   0  0  0  0  0  0  0  0  0  0  0  0
   46.8774  -29.2427 -100.2147 C   0  0  1  0  0  0  0  0  0  0  0  0
   46.3874  -28.5683  -99.0569 O   0  0  0  0  0  0  0  0  0  0  0  0
   46.1828  -30.5600 -100.3713 C   0  0  1  0  0  0  0  0  0  0  0  0
   44.8523  -30.4948  -99.8174 O   0  0  0  0  0  0  0  0  0  0  0  0
   46.1047  -30.8259 -101.9047 C   0  0  2  0  0  0  0  0  0  0  0  0
   45.0816  -26.4106 -105.4620 O   0  0  0  0  0  0  0  0  0  0  0  0
   51.2417  -32.0685 -102.4194 N   0  0  0  0  0  0  0  0  0  0  0  0
   50.7027  -31.0637 -101.6859 C   0  0  0  0  0  0  0  0  0  0  0  0
   49.3682  -30.8802 -101.6059 N   0  0  0  0  0  0  0  0  0  0  0  0
   48.5281  -31.6397 -102.3276 C   0  0  0  0  0  0  0  0  0  0  0  0
   49.0613  -32.6952 -103.1547 C   0  0  0  0  0  0  0  0  0  0  0  0
   50.4746  -32.8899 -103.1668 C   0  0  0  0  0  0  0  0  0  0  0  0
   51.0505  -33.8869 -103.9277 N   0  0  0  0  0  0  0  0  0  0  0  0
   48.0262  -33.2868 -103.7625 N   0  0  0  0  0  0  0  0  0  0  0  0
   46.9280  -32.6953 -103.3971 C   0  0  0  0  0  0  0  0  0  0  0  0
   47.1729  -31.6760 -102.5068 N   0  0  0  0  0  0  0  0  0  0  0  0
  2  1  1  6  0  0  0
  2  3  1  0  0  0  0
  2  5  1  0  0  0  0
  3  4  1  0  0  0  0
  3 17  1  0  0  0  0
  5  6  1  0  0  0  0
  7  6  1  6  0  0  0
  7  8  1  0  0  0  0
  7  9  1  0  0  0  0
 10  9  1  6  0  0  0
 10 11  1  0  0  0  0
 10 12  1  0  0  0  0
 11 16  1  0  0  0  0
 12 13  1  1  0  0  0
 12 14  1  0  0  0  0
 14 15  1  6  0  0  0
 14 16  1  0  0  0  0
 16 27  1  6  0  0  0
 18 19  2  0  0  0  0
 18 23  1  0  0  0  0
 19 20  1  0  0  0  0
 20 21  2  0  0  0  0
 21 22  1  0  0  0  0
 21 27  1  0  0  0  0
 22 23  2  0  0  0  0
 22 25  1  0  0  0  0
 23 24  1  0  0  0  0
 25 26  2  0  0  0  0
 26 27  1  0  0  0  0
M  END
>  <CHROM.1>
-59.49279003,-172.00315588,-79.09511264,-68.07144043,-88.69932665,67.31672678
67.78435675,47.64578800,-29.30952423,-103.08141193,-2.04627566,-0.91682958
2.26903430

>  <Name>
ligand

>  <RI>
0

>  <Rbt.Current_Directory>
/home/itssahil/PROJECTS/Mol_Feturizer/New_Systems/rnas/4L81

>  <Rbt.Executable>
rbdock ($Id: //depot/dev/client3/rdock/2013.1/src/exe/rbdock.cxx#4 $)

>  <Rbt.Library>
libRbt.so (2013.1, Build901 2013/11/27)

>  <Rbt.Parameter_File>
/export/apps/rDock/src/rDock_2013.1_src/data/scripts/dock_solv.prm

>  <Rbt.Receptor>
prm/pocket_docking_4.prm

>  <SCORE>
-15.2576

>  <SCORE.INTER>
-11.3832

>  <SCORE.INTER.CONST>
1

>  <SCORE.INTER.POLAR>
0

>  <SCORE.INTER.ROT>
7

>  <SCORE.INTER.SOLV>
13.2723

>  <SCORE.INTER.VDW>
-20.2795

>  <SCORE.INTER.norm>
-0.421599

>  <SCORE.INTRA>
-3.87446

>  <SCORE.INTRA.DIHEDRAL>
-2.12101

>  <SCORE.INTRA.DIHEDRAL.0>
8.34559

>  <SCORE.INTRA.POLAR>
0

>  <SCORE.INTRA.POLAR.0>
0

>  <SCORE.INTRA.REPUL>
0

>  <SCORE.INTRA.REPUL.0>
0

>  <SCORE.INTRA.SOLV>
-1.09103

>  <SCORE.INTRA.SOLV.lig_0>
-48.829

>  <SCORE.INTRA.VDW>
-2.26844

>  <SCORE.INTRA.VDW.0>
-1.77092

>  <SCORE.INTRA.norm>
-0.143499

>  <SCORE.RESTR>
0

>  <SCORE.RESTR.CAVITY>
0

>  <SCORE.RESTR.norm>
0

>  <SCORE.SYSTEM>
0

>  <SCORE.SYSTEM.CONST>
0

>  <SCORE.SYSTEM.DIHEDRAL>
0

>  <SCORE.SYSTEM.SOLV>
0

>  <SCORE.SYSTEM.norm>
0

>  <SCORE.heavy>
27

>  <SCORE.norm>
-0.565098

>  <RMSD>
4.478

$$$$
ligand
 OpenBabel11021811503D
libRbt.so/2013.1/901 2013/11/27
 27 29  0  0  0  0  0  0  0  0999 V2000
   48.2488  -22.4860 -106.2197 N   0  0  0  0  0  0  0  0  0  0  0  0
   47.5797  -23.7653 -105.9579 C   0  0  2  0  0  0  0  0  0  0  0  0
   46.0848  -23.5986 -106.1324 C   0  0  0  0  0  0  0  0  0  0  0  0
   45.3602  -24.5803 -106.1945 O   0  0  0  0  0  0  0  0  0  0  0  0
   47.8604  -24.2615 -104.5330 C   0  0  0  0  0  0  0  0  0  0  0  0
   47.5117  -25.7367 -104.3950 C   0  0  0  0  0  0  0  0  0  0  0  0
   48.0726  -26.4698 -102.8103 S   0  0  2  0  0  0  0  0  0  0  0  0
   49.8770  -26.6220 -103.0112 C   0  0  0  0  0  0  0  0  0  0  0  0
   47.6011  -28.1498 -103.2153 C   0  0  0  0  0  0  0  0  0  0  0  0
   47.3313  -29.0107 -102.0099 C   0  0  1  0  0  0  0  0  0  0  0  0
   46.7415  -30.2391 -102.4681 O   0  0  0  0  0  0  0  0  0  0  0  0
   48.6894  -29.3469 -101.5407 C   0  0  1  0  0  0  0  0  0  0  0  0
   49.0609  -28.4687 -100.4795 O   0  0  0  0  0  0  0  0  0  0  0  0
   48.5144  -30.7381 -101.0153 C   0  0  1  0  0  0  0  0  0  0  0  0
   48.0935  -30.7043  -99.6358 O   0  0  0  0  0  0  0  0  0  0  0  0
   47.4039  -31.3925 -101.8910 C   0  0  2  0  0  0  0  0  0  0  0  0
   45.5895  -22.4862 -106.1788 O   0  0  0  0  0  0  0  0  0  0  0  0
   51.2827  -33.8201 -104.5854 N   0  0  0  0  0  0  0  0  0  0  0  0
   51.4006  -33.0620 -103.4677 C   0  0  0  0  0  0  0  0  0  0  0  0
   50.3228  -32.5324 -102.8522 N   0  0  0  0  0  0  0  0  0  0  0  0
   49.0963  -32.6675 -103.3824 C   0  0  0  0  0  0  0  0  0  0  0  0
   48.9296  -33.4323 -104.5947 C   0  0  0  0  0  0  0  0  0  0  0  0
   50.0887  -34.0213 -105.1820 C   0  0  0  0  0  0  0  0  0  0  0  0
   49.9997  -34.7733 -106.3358 N   0  0  0  0  0  0  0  0  0  0  0  0
   47.6285  -33.4060 -104.9067 N   0  0  0  0  0  0  0  0  0  0  0  0
   46.9954  -32.7003 -104.0176 C   0  0  0  0  0  0  0  0  0  0  0  0
   47.8466  -32.2245 -103.0477 N   0  0  0  0  0  0  0  0  0  0  0  0
  2  1  1  1  0  0  0
  2  3  1  0  0  0  0
  2  5  1  0  0  0  0
  3  4  1  0  0  0  0
  3 17  1  0  0  0  0
  5  6  1  0  0  0  0
  7  6  1  6  0  0  0
  7  8  1  0  0  0  0
  7  9  1  0  0  0  0
 10  9  1  6  0  0  0
 10 11  1  0  0  0  0
 10 12  1  0  0  0  0
 11 16  1  0  0  0  0
 12 13  1  1  0  0  0
 12 14  1  0  0  0  0
 14 15  1  1  0  0  0
 14 16  1  0  0  0  0
 16 27  1  6  0  0  0
 18 19  2  0  0  0  0
 18 23  1  0  0  0  0
 19 20  1  0  0  0  0
 20 21  2  0  0  0  0
 21 22  1  0  0  0  0
 21 27  1  0  0  0  0
 22 23  2  0  0  0  0
 22 25  1  0  0  0  0
 23 24  1  0  0  0  0
 25 26  2  0  0  0  0
 26 27  1  0  0  0  0
M  END
>  <CHROM.1>
167.07881729,-163.86180189,170.56395183,-73.62485018,-155.01681030,169.95396397
123.19392402,48.21840924,-29.03164514,-103.63677043,-3.04073125,-1.32463818
1.50071956

>  <Name>
ligand

>  <RI>
0

>  <Rbt.Current_Directory>
/home/itssahil/PROJECTS/Mol_Feturizer/New_Systems/rnas/4L81

>  <Rbt.Executable>
rbdock ($Id: //depot/dev/client3/rdock/2013.1/src/exe/rbdock.cxx#4 $)

>  <Rbt.Library>
libRbt.so (2013.1, Build901 2013/11/27)

>  <Rbt.Parameter_File>
/export/apps/rDock/src/rDock_2013.1_src/data/scripts/dock_solv.prm

>  <Rbt.Receptor>
prm/pocket_docking_7.prm

>  <SCORE>
-12.6568

>  <SCORE.INTER>
-11.1992

>  <SCORE.INTER.CONST>
1

>  <SCORE.INTER.POLAR>
0

>  <SCORE.INTER.ROT>
7

>  <SCORE.INTER.SOLV>
6.83388

>  <SCORE.INTER.VDW>
-18.0107

>  <SCORE.INTER.norm>
-0.414784

>  <SCORE.INTRA>
-1.46555

>  <SCORE.INTRA.DIHEDRAL>
-0.955182

>  <SCORE.INTRA.DIHEDRAL.0>
8.34559

>  <SCORE.INTRA.POLAR>
0

>  <SCORE.INTRA.POLAR.0>
0

>  <SCORE.INTRA.REPUL>
0

>  <SCORE.INTRA.REPUL.0>
0

>  <SCORE.INTRA.SOLV>
-1.0063

>  <SCORE.INTRA.SOLV.lig_0>
-48.829

>  <SCORE.INTRA.VDW>
-0.484807

>  <SCORE.INTRA.VDW.0>
-1.77092

>  <SCORE.INTRA.norm>
-0.0542796

>  <SCORE.RESTR>
0.00787423

>  <SCORE.RESTR.CAVITY>
0.00787423

>  <SCORE.RESTR.norm>
0.000291638

>  <SCORE.SYSTEM>
0

>  <SCORE.SYSTEM.CONST>
0

>  <SCORE.SYSTEM.DIHEDRAL>
0

>  <SCORE.SYSTEM.SOLV>
0

>  <SCORE.SYSTEM.norm>
0

>  <SCORE.heavy>
27

>  <SCORE.norm>
-0.468772

>  <RMSD>
4.553

$$$$
ligand
 OpenBabel11021811503D
libRbt.so/2013.1/901 2013/11/27
 27 29  0  0  0  0  0  0  0  0999 V2000
   48.2875  -23.7158 -109.1106 N   0  0  0  0  0  0  0  0  0  0  0  0
   48.7071  -25.0574 -108.6900 C   0  0  2  0  0  0  0  0  0  0  0  0
   48.1619  -26.0845 -109.6598 C   0  0  0  0  0  0  0  0  0  0  0  0
   46.9762  -26.3787 -109.6411 O   0  0  0  0  0  0  0  0  0  0  0  0
   48.1970  -25.3864 -107.2805 C   0  0  0  0  0  0  0  0  0  0  0  0
   48.9934  -26.5310 -106.6700 C   0  0  0  0  0  0  0  0  0  0  0  0
   48.3985  -27.0226 -105.0064 S   0  0  2  0  0  0  0  0  0  0  0  0
   48.7779  -25.5798 -103.9603 C   0  0  0  0  0  0  0  0  0  0  0  0
   49.8158  -28.0421 -104.6053 C   0  0  0  0  0  0  0  0  0  0  0  0
   49.7292  -28.6943 -103.2511 C   0  0  1  0  0  0  0  0  0  0  0  0
   48.4999  -29.4378 -103.1972 O   0  0  0  0  0  0  0  0  0  0  0  0
   50.8188  -29.6883 -103.2992 C   0  0  1  0  0  0  0  0  0  0  0  0
   51.9785  -29.1595 -102.6582 O   0  0  0  0  0  0  0  0  0  0  0  0
   50.2598  -30.8194 -102.4928 C   0  0  1  0  0  0  0  0  0  0  0  0
   50.5530  -30.6306 -101.0929 O   0  0  0  0  0  0  0  0  0  0  0  0
   48.7184  -30.7889 -102.7190 C   0  0  2  0  0  0  0  0  0  0  0  0
   48.8929  -26.6006 -110.4870 O   0  0  0  0  0  0  0  0  0  0  0  0
   49.1668  -33.1088 -107.4745 N   0  0  0  0  0  0  0  0  0  0  0  0
   50.0293  -32.2393 -106.8933 C   0  0  0  0  0  0  0  0  0  0  0  0
   49.8173  -31.7511 -105.6532 N   0  0  0  0  0  0  0  0  0  0  0  0
   48.6902  -32.0454 -104.9849 C   0  0  0  0  0  0  0  0  0  0  0  0
   47.7243  -32.9351 -105.5833 C   0  0  0  0  0  0  0  0  0  0  0  0
   48.0144  -33.4721 -106.8728 C   0  0  0  0  0  0  0  0  0  0  0  0
   47.1392  -34.3364 -107.4986 N   0  0  0  0  0  0  0  0  0  0  0  0
   46.7063  -33.0550 -104.7229 N   0  0  0  0  0  0  0  0  0  0  0  0
   46.9514  -32.3263 -103.6749 C   0  0  0  0  0  0  0  0  0  0  0  0
   48.1642  -31.6855 -103.7750 N   0  0  0  0  0  0  0  0  0  0  0  0
  2  1  1  6  0  0  0
  2  3  1  0  0  0  0
  2  5  1  0  0  0  0
  3  4  1  0  0  0  0
  3 17  1  0  0  0  0
  5  6  1  0  0  0  0
  7  6  1  6  0  0  0
  7  8  1  0  0  0  0
  7  9  1  0  0  0  0
 10  9  1  6  0  0  0
 10 11  1  0  0  0  0
 10 12  1  0  0  0  0
 11 16  1  0  0  0  0
 12 13  1  1  0  0  0
 12 14  1  0  0  0  0
 14 15  1  1  0  0  0
 14 16  1  0  0  0  0
 16 27  1  6  0  0  0
 18 19  2  0  0  0  0
 18 23  1  0  0  0  0
 19 20  1  0  0  0  0
 20 21  2  0  0  0  0
 21 22  1  0  0  0  0
 21 27  1  0  0  0  0
 22 23  2  0  0  0  0
 22 25  1  0  0  0  0
 23 24  1  0  0  0  0
 25 26  2  0  0  0  0
 26 27  1  0  0  0  0
M  END
>  <CHROM.1>
-74.26913304,-160.92073660,-177.84942274,-66.76560723,-179.26096581,55.19706378
77.32421661,48.82243401,-29.29458382,-105.55310581,-1.77462159,1.22583378
2.76151937

>  <Name>
ligand

>  <RI>
0

>  <Rbt.Current_Directory>
/home/itssahil/PROJECTS/Mol_Feturizer/New_Systems/rnas/4L81

>  <Rbt.Executable>
rbdock ($Id: //depot/dev/client3/rdock/2013.1/src/exe/rbdock.cxx#4 $)

>  <Rbt.Library>
libRbt.so (2013.1, Build901 2013/11/27)

>  <Rbt.Parameter_File>
/export/apps/rDock/src/rDock_2013.1_src/data/scripts/dock_solv.prm

>  <Rbt.Receptor>
prm/pocket_docking_6.prm

>  <SCORE>
-8.91738

>  <SCORE.INTER>
-5.55636

>  <SCORE.INTER.CONST>
1

>  <SCORE.INTER.POLAR>
0

>  <SCORE.INTER.ROT>
7

>  <SCORE.INTER.SOLV>
12.0099

>  <SCORE.INTER.VDW>
-15.9742

>  <SCORE.INTER.norm>
-0.205791

>  <SCORE.INTRA>
-3.36111

>  <SCORE.INTRA.DIHEDRAL>
-3.48423

>  <SCORE.INTRA.DIHEDRAL.0>
8.34559

>  <SCORE.INTRA.POLAR>
0

>  <SCORE.INTRA.POLAR.0>
0

>  <SCORE.INTRA.REPUL>
0

>  <SCORE.INTRA.REPUL.0>
0

>  <SCORE.INTRA.SOLV>
-1.2746

>  <SCORE.INTRA.SOLV.lig_0>
-48.829

>  <SCORE.INTRA.VDW>
-0.981698

>  <SCORE.INTRA.VDW.0>
-1.77092

>  <SCORE.INTRA.norm>
-0.124486

>  <SCORE.RESTR>
9.00849e-05

>  <SCORE.RESTR.CAVITY>
9.00849e-05

>  <SCORE.RESTR.norm>
3.33648e-06

>  <SCORE.SYSTEM>
0

>  <SCORE.SYSTEM.CONST>
0

>  <SCORE.SYSTEM.DIHEDRAL>
0

>  <SCORE.SYSTEM.SOLV>
0

>  <SCORE.SYSTEM.norm>
0

>  <SCORE.heavy>
27

>  <SCORE.norm>
-0.330273

>  <RMSD>
4.587

$$$$
ligand
 OpenBabel11021811503D
libRbt.so/2013.1/901 2013/11/27
 27 29  0  0  0  0  0  0  0  0999 V2000
   45.9007  -30.0072  -98.8741 N   0  0  0  0  0  0  0  0  0  0  0  0
   46.3934  -28.9534  -99.7683 C   0  0  2  0  0  0  0  0  0  0  0  0
   45.3906  -28.7239 -100.8793 C   0  0  0  0  0  0  0  0  0  0  0  0
   45.7140  -28.1022 -101.8802 O   0  0  0  0  0  0  0  0  0  0  0  0
   47.7440  -29.3341 -100.3899 C   0  0  0  0  0  0  0  0  0  0  0  0
   47.6912  -30.7349 -100.9831 C   0  0  0  0  0  0  0  0  0  0  0  0
   47.1361  -30.7624 -102.7308 S   0  0  2  0  0  0  0  0  0  0  0  0
   45.4497  -31.4468 -102.6452 C   0  0  0  0  0  0  0  0  0  0  0  0
   48.0234  -32.2536 -103.1753 C   0  0  0  0  0  0  0  0  0  0  0  0
   49.4512  -32.0094 -103.5861 C   0  0  1  0  0  0  0  0  0  0  0  0
   49.4872  -30.7966 -104.3574 O   0  0  0  0  0  0  0  0  0  0  0  0
   50.1118  -31.7089 -102.3012 C   0  0  1  0  0  0  0  0  0  0  0  0
   50.7516  -32.8837 -101.8052 O   0  0  0  0  0  0  0  0  0  0  0  0
   51.1402  -30.6947 -102.6961 C   0  0  1  0  0  0  0  0  0  0  0  0
   52.3547  -31.3494 -103.1175 O   0  0  0  0  0  0  0  0  0  0  0  0
   50.5264  -29.9011 -103.8884 C   0  0  2  0  0  0  0  0  0  0  0  0
   44.2654  -29.1846 -100.7995 O   0  0  0  0  0  0  0  0  0  0  0  0
   46.5115  -26.5202 -104.6937 N   0  0  0  0  0  0  0  0  0  0  0  0
   46.7452  -27.6942 -105.3302 C   0  0  0  0  0  0  0  0  0  0  0  0
   47.7867  -28.4860 -104.9994 N   0  0  0  0  0  0  0  0  0  0  0  0
   48.6830  -28.0902 -104.0810 C   0  0  0  0  0  0  0  0  0  0  0  0
   48.4960  -26.8279 -103.4073 C   0  0  0  0  0  0  0  0  0  0  0  0
   47.3512  -26.0478 -103.7483 C   0  0  0  0  0  0  0  0  0  0  0  0
   47.1061  -24.8355 -103.1359 N   0  0  0  0  0  0  0  0  0  0  0  0
   49.5186  -26.6741 -102.5579 N   0  0  0  0  0  0  0  0  0  0  0  0
   50.3058  -27.7039 -102.6541 C   0  0  0  0  0  0  0  0  0  0  0  0
   49.8388  -28.6152 -103.5723 N   0  0  0  0  0  0  0  0  0  0  0  0
  2  1  1  1  0  0  0
  2  3  1  0  0  0  0
  2  5  1  0  0  0  0
  3  4  1  0  0  0  0
  3 17  1  0  0  0  0
  5  6  1  0  0  0  0
  7  6  1  1  0  0  0
  7  8  1  0  0  0  0
  7  9  1  0  0  0  0
 10  9  1  1  0  0  0
 10 11  1  0  0  0  0
 10 12  1  0  0  0  0
 11 16  1  0  0  0  0
 12 13  1  6  0  0  0
 12 14  1  0  0  0  0
 14 15  1  6  0  0  0
 14 16  1  0  0  0  0
 16 27  1  1  0  0  0
 18 19  2  0  0  0  0
 18 23  1  0  0  0  0
 19 20  1  0  0  0  0
 20 21  2  0  0  0  0
 21 22  1  0  0  0  0
 21 27  1  0  0  0  0
 22 23  2  0  0  0  0
 22 25  1  0  0  0  0
 23 24  1  0  0  0  0
 25 26  2  0  0  0  0
 26 27  1  0  0  0  0
M  END
>  <CHROM.1>
-164.64818139,49.55473203,88.84375682,-107.23510785,-85.63589700,-38.67365160
-26.21156129,48.09142966,-29.41364141,-102.64625242,2.54884950,0.50025874
-0.46240894

>  <Name>
ligand

>  <RI>
0

>  <Rbt.Current_Directory>
/home/itssahil/PROJECTS/Mol_Feturizer/New_Systems/rnas/4L81

>  <Rbt.Executable>
rbdock ($Id: //depot/dev/client3/rdock/2013.1/src/exe/rbdock.cxx#4 $)

>  <Rbt.Library>
libRbt.so (2013.1, Build901 2013/11/27)

>  <Rbt.Parameter_File>
/export/apps/rDock/src/rDock_2013.1_src/data/scripts/dock_solv.prm

>  <Rbt.Receptor>
prm/pocket_docking_3.prm

>  <SCORE>
-7.36966

>  <SCORE.INTER>
-6.89956

>  <SCORE.INTER.CONST>
1

>  <SCORE.INTER.POLAR>
0

>  <SCORE.INTER.ROT>
7

>  <SCORE.INTER.SOLV>
18.8897

>  <SCORE.INTER.VDW>
-19.1629

>  <SCORE.INTER.norm>
-0.255539

>  <SCORE.INTRA>
-0.470096

>  <SCORE.INTRA.DIHEDRAL>
3.28874

>  <SCORE.INTRA.DIHEDRAL.0>
8.34559

>  <SCORE.INTRA.POLAR>
0

>  <SCORE.INTRA.POLAR.0>
0

>  <SCORE.INTRA.REPUL>
0

>  <SCORE.INTRA.REPUL.0>
0

>  <SCORE.INTRA.SOLV>
1.13128

>  <SCORE.INTRA.SOLV.lig_0>
-48.829

>  <SCORE.INTRA.VDW>
-2.68011

>  <SCORE.INTRA.VDW.0>
-1.77092

>  <SCORE.INTRA.norm>
-0.017411

>  <SCORE.RESTR>
0

>  <SCORE.RESTR.CAVITY>
0

>  <SCORE.RESTR.norm>
0

>  <SCORE.SYSTEM>
0

>  <SCORE.SYSTEM.CONST>
0

>  <SCORE.SYSTEM.DIHEDRAL>
0

>  <SCORE.SYSTEM.SOLV>
0

>  <SCORE.SYSTEM.norm>
0

>  <SCORE.heavy>
27

>  <SCORE.norm>
-0.27295

>  <RMSD>
4.593

$$$$
ligand
 OpenBabel11021811503D
libRbt.so/2013.1/901 2013/11/27
 27 29  0  0  0  0  0  0  0  0999 V2000
   46.9769  -27.6097 -106.5927 N   0  0  0  0  0  0  0  0  0  0  0  0
   48.2391  -26.9513 -106.2378 C   0  0  2  0  0  0  0  0  0  0  0  0
   48.8646  -26.3545 -107.4809 C   0  0  0  0  0  0  0  0  0  0  0  0
   49.5401  -25.3395 -107.4022 O   0  0  0  0  0  0  0  0  0  0  0  0
   49.2295  -27.9420 -105.6110 C   0  0  0  0  0  0  0  0  0  0  0  0
   48.7495  -28.3920 -104.2384 C   0  0  0  0  0  0  0  0  0  0  0  0
   48.6291  -27.0209 -103.0264 S   0  0  2  0  0  0  0  0  0  0  0  0
   50.3452  -26.4329 -102.8568 C   0  0  0  0  0  0  0  0  0  0  0  0
   48.5465  -28.0715 -101.5778 C   0  0  0  0  0  0  0  0  0  0  0  0
   47.1670  -28.6029 -101.2927 C   0  0  1  0  0  0  0  0  0  0  0  0
   46.7533  -29.3866 -102.4247 O   0  0  0  0  0  0  0  0  0  0  0  0
   47.4069  -29.5534 -100.1897 C   0  0  1  0  0  0  0  0  0  0  0  0
   47.1156  -28.9240  -98.9429 O   0  0  0  0  0  0  0  0  0  0  0  0
   46.4026  -30.6291 -100.4662 C   0  0  1  0  0  0  0  0  0  0  0  0
   45.1377  -30.3044  -99.8531 O   0  0  0  0  0  0  0  0  0  0  0  0
   46.2417  -30.6799 -102.0153 C   0  0  2  0  0  0  0  0  0  0  0  0
   48.7272  -26.8987 -108.5625 O   0  0  0  0  0  0  0  0  0  0  0  0
   50.9549  -32.8629 -103.1194 N   0  0  0  0  0  0  0  0  0  0  0  0
   50.7008  -31.8117 -102.3019 C   0  0  0  0  0  0  0  0  0  0  0  0
   49.4436  -31.3783 -102.0727 N   0  0  0  0  0  0  0  0  0  0  0  0
   48.4023  -31.9236 -102.7220 C   0  0  0  0  0  0  0  0  0  0  0  0
   48.6313  -33.0187 -103.6335 C   0  0  0  0  0  0  0  0  0  0  0  0
   49.9699  -33.4817 -103.8042 C   0  0  0  0  0  0  0  0  0  0  0  0
   50.2587  -34.5311 -104.6527 N   0  0  0  0  0  0  0  0  0  0  0  0
   47.4443  -33.3677 -104.1435 N   0  0  0  0  0  0  0  0  0  0  0  0
   46.5265  -32.5947 -103.6439 C   0  0  0  0  0  0  0  0  0  0  0  0
   47.0555  -31.6885 -102.7547 N   0  0  0  0  0  0  0  0  0  0  0  0
  2  1  1  6  0  0  0
  2  3  1  0  0  0  0
  2  5  1  0  0  0  0
  3  4  1  0  0  0  0
  3 17  1  0  0  0  0
  5  6  1  0  0  0  0
  7  6  1  6  0  0  0
  7  8  1  0  0  0  0
  7  9  1  0  0  0  0
 10  9  1  6  0  0  0
 10 11  1  0  0  0  0
 10 12  1  0  0  0  0
 11 16  1  0  0  0  0
 12 13  1  1  0  0  0
 12 14  1  0  0  0  0
 14 15  1  1  0  0  0
 14 16  1  0  0  0  0
 16 27  1  6  0  0  0
 18 19  2  0  0  0  0
 18 23  1  0  0  0  0
 19 20  1  0  0  0  0
 20 21  2  0  0  0  0
 21 22  1  0  0  0  0
 21 27  1  0  0  0  0
 22 23  2  0  0  0  0
 22 25  1  0  0  0  0
 23 24  1  0  0  0  0
 25 26  2  0  0  0  0
 26 27  1  0  0  0  0
M  END
>  <CHROM.1>
148.71053671,-68.75913286,-62.54229736,-63.05799960,-82.52967994,60.63134921
60.74170577,48.27460513,-29.61555023,-103.37675638,-1.20378536,-1.15293188
2.76129859

>  <Name>
ligand

>  <RI>
0

>  <Rbt.Current_Directory>
/home/itssahil/PROJECTS/Mol_Feturizer/New_Systems/rnas/4L81

>  <Rbt.Executable>
rbdock ($Id: //depot/dev/client3/rdock/2013.1/src/exe/rbdock.cxx#4 $)

>  <Rbt.Library>
libRbt.so (2013.1, Build901 2013/11/27)

>  <Rbt.Parameter_File>
/export/apps/rDock/src/rDock_2013.1_src/data/scripts/dock_solv.prm

>  <Rbt.Receptor>
prm/pocket_docking_7.prm

>  <SCORE>
-16.0756

>  <SCORE.INTER>
-12.0108

>  <SCORE.INTER.CONST>
1

>  <SCORE.INTER.POLAR>
0

>  <SCORE.INTER.ROT>
7

>  <SCORE.INTER.SOLV>
11.857

>  <SCORE.INTER.VDW>
-20.2262

>  <SCORE.INTER.norm>
-0.444845

>  <SCORE.INTRA>
-4.06475

>  <SCORE.INTRA.DIHEDRAL>
-4.03569

>  <SCORE.INTRA.DIHEDRAL.0>
8.34559

>  <SCORE.INTRA.POLAR>
0

>  <SCORE.INTRA.POLAR.0>
0

>  <SCORE.INTRA.REPUL>
0

>  <SCORE.INTRA.REPUL.0>
0

>  <SCORE.INTRA.SOLV>
-0.0293818

>  <SCORE.INTRA.SOLV.lig_0>
-48.829

>  <SCORE.INTRA.VDW>
-2.03221

>  <SCORE.INTRA.VDW.0>
-1.77092

>  <SCORE.INTRA.norm>
-0.150546

>  <SCORE.RESTR>
0

>  <SCORE.RESTR.CAVITY>
0

>  <SCORE.RESTR.norm>
0

>  <SCORE.SYSTEM>
0

>  <SCORE.SYSTEM.CONST>
0

>  <SCORE.SYSTEM.DIHEDRAL>
0

>  <SCORE.SYSTEM.SOLV>
0

>  <SCORE.SYSTEM.norm>
0

>  <SCORE.heavy>
27

>  <SCORE.norm>
-0.595391

>  <RMSD>
4.627

$$$$
ligand
 OpenBabel11021811503D
libRbt.so/2013.1/901 2013/11/27
 27 29  0  0  0  0  0  0  0  0999 V2000
   45.8344  -24.0448 -107.1575 N   0  0  0  0  0  0  0  0  0  0  0  0
   46.3220  -25.2520 -106.4810 C   0  0  2  0  0  0  0  0  0  0  0  0
   47.1497  -26.0732 -107.4471 C   0  0  0  0  0  0  0  0  0  0  0  0
   46.6872  -26.3982 -108.5302 O   0  0  0  0  0  0  0  0  0  0  0  0
   45.1598  -26.1130 -105.9676 C   0  0  0  0  0  0  0  0  0  0  0  0
   45.6318  -27.0653 -104.8781 C   0  0  0  0  0  0  0  0  0  0  0  0
   45.9601  -26.2317 -103.2779 S   0  0  2  0  0  0  0  0  0  0  0  0
   47.4796  -25.2745 -103.5849 C   0  0  0  0  0  0  0  0  0  0  0  0
   46.6842  -27.6617 -102.4782 C   0  0  0  0  0  0  0  0  0  0  0  0
   45.6706  -28.5923 -101.8672 C   0  0  1  0  0  0  0  0  0  0  0  0
   45.4489  -29.6712 -102.7912 O   0  0  0  0  0  0  0  0  0  0  0  0
   46.4043  -29.1649 -100.7220 C   0  0  1  0  0  0  0  0  0  0  0  0
   46.0583  -28.4603  -99.5307 O   0  0  0  0  0  0  0  0  0  0  0  0
   45.8704  -30.5626 -100.6627 C   0  0  1  0  0  0  0  0  0  0  0  0
   44.6716  -30.6083  -99.8614 O   0  0  0  0  0  0  0  0  0  0  0  0
   45.5392  -30.9597 -102.1326 C   0  0  2  0  0  0  0  0  0  0  0  0
   48.2931  -26.3877 -107.1667 O   0  0  0  0  0  0  0  0  0  0  0  0
   50.6031  -32.4236 -102.7749 N   0  0  0  0  0  0  0  0  0  0  0  0
   50.0981  -31.5765 -101.8447 C   0  0  0  0  0  0  0  0  0  0  0  0
   48.7760  -31.3191 -101.7623 N   0  0  0  0  0  0  0  0  0  0  0  0
   47.9214  -31.8301 -102.6634 C   0  0  0  0  0  0  0  0  0  0  0  0
   48.4215  -32.7048 -103.6965 C   0  0  0  0  0  0  0  0  0  0  0  0
   49.8184  -32.9943 -103.7133 C   0  0  0  0  0  0  0  0  0  0  0  0
   50.3619  -33.8304 -104.6674 N   0  0  0  0  0  0  0  0  0  0  0  0
   47.3783  -33.0646 -104.4536 N   0  0  0  0  0  0  0  0  0  0  0  0
   46.3054  -32.4937 -103.9926 C   0  0  0  0  0  0  0  0  0  0  0  0
   46.5760  -31.7255 -102.8843 N   0  0  0  0  0  0  0  0  0  0  0  0
  2  1  1  6  0  0  0
  2  3  1  0  0  0  0
  2  5  1  0  0  0  0
  3  4  1  0  0  0  0
  3 17  1  0  0  0  0
  5  6  1  0  0  0  0
  7  6  1  6  0  0  0
  7  8  1  0  0  0  0
  7  9  1  0  0  0  0
 10  9  1  6  0  0  0
 10 11  1  0  0  0  0
 10 12  1  0  0  0  0
 11 16  1  0  0  0  0
 12 13  1  1  0  0  0
 12 14  1  0  0  0  0
 14 15  1  1  0  0  0
 14 16  1  0  0  0  0
 16 27  1  6  0  0  0
 18 19  2  0  0  0  0
 18 23  1  0  0  0  0
 19 20  1  0  0  0  0
 20 21  2  0  0  0  0
 21 22  1  0  0  0  0
 21 27  1  0  0  0  0
 22 23  2  0  0  0  0
 22 25  1  0  0  0  0
 23 24  1  0  0  0  0
 25 26  2  0  0  0  0
 26 27  1  0  0  0  0
M  END
>  <CHROM.1>
-53.60035388,-160.08341430,73.80998898,-71.28141521,-84.50383680,98.33839153
92.26474922,46.98333329,-29.11568125,-103.58358165,-1.95960752,-0.95065830
2.30131124

>  <Name>
ligand

>  <RI>
0

>  <Rbt.Current_Directory>
/home/itssahil/PROJECTS/Mol_Feturizer/New_Systems/rnas/4L81

>  <Rbt.Executable>
rbdock ($Id: //depot/dev/client3/rdock/2013.1/src/exe/rbdock.cxx#4 $)

>  <Rbt.Library>
libRbt.so (2013.1, Build901 2013/11/27)

>  <Rbt.Parameter_File>
/export/apps/rDock/src/rDock_2013.1_src/data/scripts/dock_solv.prm

>  <Rbt.Receptor>
prm/pocket_docking_7.prm

>  <SCORE>
-13.865

>  <SCORE.INTER>
-13.0373

>  <SCORE.INTER.CONST>
1

>  <SCORE.INTER.POLAR>
0

>  <SCORE.INTER.ROT>
7

>  <SCORE.INTER.SOLV>
13.5203

>  <SCORE.INTER.VDW>
-21.4649

>  <SCORE.INTER.norm>
-0.482861

>  <SCORE.INTRA>
-0.827768

>  <SCORE.INTRA.DIHEDRAL>
1.50632

>  <SCORE.INTRA.DIHEDRAL.0>
8.34559

>  <SCORE.INTRA.POLAR>
0

>  <SCORE.INTRA.POLAR.0>
0

>  <SCORE.INTRA.REPUL>
0

>  <SCORE.INTRA.REPUL.0>
0

>  <SCORE.INTRA.SOLV>
-0.585613

>  <SCORE.INTRA.SOLV.lig_0>
-48.829

>  <SCORE.INTRA.VDW>
-1.28812

>  <SCORE.INTRA.VDW.0>
-1.77092

>  <SCORE.INTRA.norm>
-0.0306581

>  <SCORE.RESTR>
0

>  <SCORE.RESTR.CAVITY>
0

>  <SCORE.RESTR.norm>
0

>  <SCORE.SYSTEM>
0

>  <SCORE.SYSTEM.CONST>
0

>  <SCORE.SYSTEM.DIHEDRAL>
0

>  <SCORE.SYSTEM.SOLV>
0

>  <SCORE.SYSTEM.norm>
0

>  <SCORE.heavy>
27

>  <SCORE.norm>
-0.513519

>  <RMSD>
4.673

$$$$
ligand
 OpenBabel11021811503D
libRbt.so/2013.1/901 2013/11/27
 27 29  0  0  0  0  0  0  0  0999 V2000
   48.5849  -25.2072 -107.6001 N   0  0  0  0  0  0  0  0  0  0  0  0
   47.7226  -26.0188 -106.7337 C   0  0  2  0  0  0  0  0  0  0  0  0
   46.5840  -26.5936 -107.5498 C   0  0  0  0  0  0  0  0  0  0  0  0
   46.5589  -26.4418 -108.7618 O   0  0  0  0  0  0  0  0  0  0  0  0
   47.1383  -25.1836 -105.5864 C   0  0  0  0  0  0  0  0  0  0  0  0
   47.3265  -25.8908 -104.2517 C   0  0  0  0  0  0  0  0  0  0  0  0
   46.3630  -27.4450 -104.1118 S   0  0  2  0  0  0  0  0  0  0  0  0
   44.6426  -26.8788 -103.9135 C   0  0  0  0  0  0  0  0  0  0  0  0
   46.7609  -27.7461 -102.3914 C   0  0  0  0  0  0  0  0  0  0  0  0
   45.8108  -28.6921 -101.7064 C   0  0  1  0  0  0  0  0  0  0  0  0
   45.6130  -29.8227 -102.5723 O   0  0  0  0  0  0  0  0  0  0  0  0
   46.6043  -29.1756 -100.5600 C   0  0  1  0  0  0  0  0  0  0  0  0
   46.2609  -28.4320  -99.3919 O   0  0  0  0  0  0  0  0  0  0  0  0
   46.1390  -30.5919 -100.4196 C   0  0  1  0  0  0  0  0  0  0  0  0
   44.9680  -30.6545  -99.5793 O   0  0  0  0  0  0  0  0  0  0  0  0
   45.7836  -31.0730 -101.8584 C   0  0  2  0  0  0  0  0  0  0  0  0
   45.7028  -27.2391 -107.0098 O   0  0  0  0  0  0  0  0  0  0  0  0
   50.8927  -32.3078 -102.6140 N   0  0  0  0  0  0  0  0  0  0  0  0
   50.3763  -31.4369 -101.7124 C   0  0  0  0  0  0  0  0  0  0  0  0
   49.0461  -31.2438 -101.5934 N   0  0  0  0  0  0  0  0  0  0  0  0
   48.1887  -31.8479 -102.4321 C   0  0  0  0  0  0  0  0  0  0  0  0
   48.6980  -32.7521 -103.4349 C   0  0  0  0  0  0  0  0  0  0  0  0
   50.1069  -32.9698 -103.4895 C   0  0  0  0  0  0  0  0  0  0  0  0
   50.6604  -33.8289 -104.4170 N   0  0  0  0  0  0  0  0  0  0  0  0
   47.6495  -33.2071 -104.1308 N   0  0  0  0  0  0  0  0  0  0  0  0
   46.5646  -32.6673 -103.6607 C   0  0  0  0  0  0  0  0  0  0  0  0
   46.8326  -31.8252 -102.6068 N   0  0  0  0  0  0  0  0  0  0  0  0
  2  1  1  6  0  0  0
  2  3  1  0  0  0  0
  2  5  1  0  0  0  0
  3  4  1  0  0  0  0
  3 17  1  0  0  0  0
  5  6  1  0  0  0  0
  7  6  1  1  0  0  0
  7  8  1  0  0  0  0
  7  9  1  0  0  0  0
 10  9  1  6  0  0  0
 10 11  1  0  0  0  0
 10 12  1  0  0  0  0
 11 16  1  0  0  0  0
 12 13  1  1  0  0  0
 12 14  1  0  0  0  0
 14 15  1  1  0  0  0
 14 16  1  0  0  0  0
 16 27  1  6  0  0  0
 18 19  2  0  0  0  0
 18 23  1  0  0  0  0
 19 20  1  0  0  0  0
 20 21  2  0  0  0  0
 21 22  1  0  0  0  0
 21 27  1  0  0  0  0
 22 23  2  0  0  0  0
 22 25  1  0  0  0  0
 23 24  1  0  0  0  0
 25 26  2  0  0  0  0
 26 27  1  0  0  0  0
M  END
>  <CHROM.1>
6.06594196,-131.12988768,-66.31831482,-72.96610647,160.53359219,46.44741159
91.57279572,47.20598025,-29.34398571,-103.52299534,-1.86569410,-0.87664520
2.25956205

>  <Name>
ligand

>  <RI>
0

>  <Rbt.Current_Directory>
/home/itssahil/PROJECTS/Mol_Feturizer/New_Systems/rnas/4L81

>  <Rbt.Executable>
rbdock ($Id: //depot/dev/client3/rdock/2013.1/src/exe/rbdock.cxx#4 $)

>  <Rbt.Library>
libRbt.so (2013.1, Build901 2013/11/27)

>  <Rbt.Parameter_File>
/export/apps/rDock/src/rDock_2013.1_src/data/scripts/dock_solv.prm

>  <Rbt.Receptor>
prm/pocket_docking_5.prm

>  <SCORE>
-12.6137

>  <SCORE.INTER>
-12.0484

>  <SCORE.INTER.CONST>
1

>  <SCORE.INTER.POLAR>
0

>  <SCORE.INTER.ROT>
7

>  <SCORE.INTER.SOLV>
12.7488

>  <SCORE.INTER.VDW>
-20.5486

>  <SCORE.INTER.norm>
-0.446238

>  <SCORE.INTRA>
-0.565312

>  <SCORE.INTRA.DIHEDRAL>
1.46638

>  <SCORE.INTRA.DIHEDRAL.0>
8.34559

>  <SCORE.INTRA.POLAR>
0

>  <SCORE.INTRA.POLAR.0>
0

>  <SCORE.INTRA.REPUL>
0

>  <SCORE.INTRA.REPUL.0>
0

>  <SCORE.INTRA.SOLV>
-0.972086

>  <SCORE.INTRA.SOLV.lig_0>
-48.829

>  <SCORE.INTRA.VDW>
-0.81246

>  <SCORE.INTRA.VDW.0>
-1.77092

>  <SCORE.INTRA.norm>
-0.0209375

>  <SCORE.RESTR>
0

>  <SCORE.RESTR.CAVITY>
0

>  <SCORE.RESTR.norm>
0

>  <SCORE.SYSTEM>
0

>  <SCORE.SYSTEM.CONST>
0

>  <SCORE.SYSTEM.DIHEDRAL>
0

>  <SCORE.SYSTEM.SOLV>
0

>  <SCORE.SYSTEM.norm>
0

>  <SCORE.heavy>
27

>  <SCORE.norm>
-0.467175

>  <RMSD>
4.676

$$$$
ligand
 OpenBabel11021811503D
libRbt.so/2013.1/901 2013/11/27
 27 29  0  0  0  0  0  0  0  0999 V2000
   44.5285  -30.0857 -103.3613 N   0  0  0  0  0  0  0  0  0  0  0  0
   44.7470  -28.6517 -103.5817 C   0  0  2  0  0  0  0  0  0  0  0  0
   44.5398  -28.3282 -105.0463 C   0  0  0  0  0  0  0  0  0  0  0  0
   44.4274  -29.2286 -105.8645 O   0  0  0  0  0  0  0  0  0  0  0  0
   46.1676  -28.2342 -103.1778 C   0  0  0  0  0  0  0  0  0  0  0  0
   46.3138  -28.2074 -101.6630 C   0  0  0  0  0  0  0  0  0  0  0  0
   46.3372  -29.8779 -100.9066 S   0  0  2  0  0  0  0  0  0  0  0  0
   46.4654  -29.5489  -99.1192 C   0  0  0  0  0  0  0  0  0  0  0  0
   48.0627  -30.2073 -101.2573 C   0  0  0  0  0  0  0  0  0  0  0  0
   48.2957  -31.5018 -101.9899 C   0  0  1  0  0  0  0  0  0  0  0  0
   47.4459  -31.5116 -103.1496 O   0  0  0  0  0  0  0  0  0  0  0  0
   49.6779  -31.3508 -102.4842 C   0  0  1  0  0  0  0  0  0  0  0  0
   50.5783  -32.0160 -101.5997 O   0  0  0  0  0  0  0  0  0  0  0  0
   49.6307  -32.0661 -103.7988 C   0  0  1  0  0  0  0  0  0  0  0  0
   49.8965  -33.4722 -103.6149 O   0  0  0  0  0  0  0  0  0  0  0  0
   48.1848  -31.8684 -104.3449 C   0  0  2  0  0  0  0  0  0  0  0  0
   44.4503  -27.1704 -105.4156 O   0  0  0  0  0  0  0  0  0  0  0  0
   49.4108  -27.0063 -106.0926 N   0  0  0  0  0  0  0  0  0  0  0  0
   49.9366  -27.6599 -105.0276 C   0  0  0  0  0  0  0  0  0  0  0  0
   49.5652  -28.9185 -104.7130 N   0  0  0  0  0  0  0  0  0  0  0  0
   48.5898  -29.5362 -105.3989 C   0  0  0  0  0  0  0  0  0  0  0  0
   47.9730  -28.8614 -106.5155 C   0  0  0  0  0  0  0  0  0  0  0  0
   48.4346  -27.5530 -106.8477 C   0  0  0  0  0  0  0  0  0  0  0  0
   47.8956  -26.8548 -107.9091 N   0  0  0  0  0  0  0  0  0  0  0  0
   47.0419  -29.6837 -107.0132 N   0  0  0  0  0  0  0  0  0  0  0  0
   47.0257  -30.7773 -106.3110 C   0  0  0  0  0  0  0  0  0  0  0  0
   47.9637  -30.7484 -105.3055 N   0  0  0  0  0  0  0  0  0  0  0  0
  2  1  1  6  0  0  0
  2  3  1  0  0  0  0
  2  5  1  0  0  0  0
  3  4  1  0  0  0  0
  3 17  1  0  0  0  0
  5  6  1  0  0  0  0
  7  6  1  6  0  0  0
  7  8  1  0  0  0  0
  7  9  1  0  0  0  0
 10  9  1  1  0  0  0
 10 11  1  0  0  0  0
 10 12  1  0  0  0  0
 11 16  1  0  0  0  0
 12 13  1  1  0  0  0
 12 14  1  0  0  0  0
 14 15  1  1  0  0  0
 14 16  1  0  0  0  0
 16 27  1  6  0  0  0
 18 19  2  0  0  0  0
 18 23  1  0  0  0  0
 19 20  1  0  0  0  0
 20 21  2  0  0  0  0
 21 22  1  0  0  0  0
 21 27  1  0  0  0  0
 22 23  2  0  0  0  0
 22 25  1  0  0  0  0
 23 24  1  0  0  0  0
 25 26  2  0  0  0  0
 26 27  1  0  0  0  0
M  END
>  <CHROM.1>
-10.48175996,-73.48025232,71.79390754,-178.28739709,-126.71548579,52.22422962
82.05520098,47.46344738,-29.70827493,-103.92052638,1.86702722,0.53121450
-1.13176894

>  <Name>
ligand

>  <RI>
0

>  <Rbt.Current_Directory>
/home/itssahil/PROJECTS/Mol_Feturizer/New_Systems/rnas/4L81

>  <Rbt.Executable>
rbdock ($Id: //depot/dev/client3/rdock/2013.1/src/exe/rbdock.cxx#4 $)

>  <Rbt.Library>
libRbt.so (2013.1, Build901 2013/11/27)

>  <Rbt.Parameter_File>
/export/apps/rDock/src/rDock_2013.1_src/data/scripts/dock_solv.prm

>  <Rbt.Receptor>
prm/pocket_docking_6.prm

>  <SCORE>
-12.0972

>  <SCORE.INTER>
-9.49488

>  <SCORE.INTER.CONST>
1

>  <SCORE.INTER.POLAR>
0

>  <SCORE.INTER.ROT>
7

>  <SCORE.INTER.SOLV>
8.6395

>  <SCORE.INTER.VDW>
-17.4764

>  <SCORE.INTER.norm>
-0.351662

>  <SCORE.INTRA>
-2.60237

>  <SCORE.INTRA.DIHEDRAL>
1.15498

>  <SCORE.INTRA.DIHEDRAL.0>
8.34559

>  <SCORE.INTRA.POLAR>
0

>  <SCORE.INTRA.POLAR.0>
0

>  <SCORE.INTRA.REPUL>
0

>  <SCORE.INTRA.REPUL.0>
0

>  <SCORE.INTRA.SOLV>
2.29027

>  <SCORE.INTRA.SOLV.lig_0>
-48.829

>  <SCORE.INTRA.VDW>
-4.32499

>  <SCORE.INTRA.VDW.0>
-1.77092

>  <SCORE.INTRA.norm>
-0.0963841

>  <SCORE.RESTR>
0

>  <SCORE.RESTR.CAVITY>
0

>  <SCORE.RESTR.norm>
0

>  <SCORE.SYSTEM>
0

>  <SCORE.SYSTEM.CONST>
0

>  <SCORE.SYSTEM.DIHEDRAL>
0

>  <SCORE.SYSTEM.SOLV>
0

>  <SCORE.SYSTEM.norm>
0

>  <SCORE.heavy>
27

>  <SCORE.norm>
-0.448046

>  <RMSD>
4.725

$$$$
ligand
 OpenBabel11021811503D
libRbt.so/2013.1/901 2013/11/27
 27 29  0  0  0  0  0  0  0  0999 V2000
   49.7620  -23.9546 -105.1300 N   0  0  0  0  0  0  0  0  0  0  0  0
   48.7167  -24.3309 -104.1717 C   0  0  2  0  0  0  0  0  0  0  0  0
   49.1670  -23.9800 -102.7692 C   0  0  0  0  0  0  0  0  0  0  0  0
   50.3453  -24.0750 -102.4603 O   0  0  0  0  0  0  0  0  0  0  0  0
   48.4160  -25.8346 -104.2344 C   0  0  0  0  0  0  0  0  0  0  0  0
   47.2684  -26.1965 -103.3022 C   0  0  0  0  0  0  0  0  0  0  0  0
   46.5564  -27.8530 -103.6371 S   0  0  2  0  0  0  0  0  0  0  0  0
   45.6995  -27.6484 -105.2319 C   0  0  0  0  0  0  0  0  0  0  0  0
   45.1541  -27.6688 -102.5378 C   0  0  0  0  0  0  0  0  0  0  0  0
   45.0353  -28.7697 -101.5176 C   0  0  1  0  0  0  0  0  0  0  0  0
   44.8819  -30.0120 -102.2248 O   0  0  0  0  0  0  0  0  0  0  0  0
   46.3800  -28.7961 -100.9104 C   0  0  1  0  0  0  0  0  0  0  0  0
   46.3709  -28.0515  -99.6935 O   0  0  0  0  0  0  0  0  0  0  0  0
   46.5736  -30.2517 -100.6176 C   0  0  1  0  0  0  0  0  0  0  0  0
   46.0300  -30.5798  -99.3222 O   0  0  0  0  0  0  0  0  0  0  0  0
   45.7963  -31.0212 -101.7274 C   0  0  2  0  0  0  0  0  0  0  0  0
   48.3652  -23.5693 -101.9487 O   0  0  0  0  0  0  0  0  0  0  0  0
   46.3933  -31.3158 -106.9958 N   0  0  0  0  0  0  0  0  0  0  0  0
   45.3716  -30.7478 -106.3091 C   0  0  0  0  0  0  0  0  0  0  0  0
   45.3610  -30.7030 -104.9604 N   0  0  0  0  0  0  0  0  0  0  0  0
   46.3281  -31.3032 -104.2477 C   0  0  0  0  0  0  0  0  0  0  0  0
   47.4144  -31.9560 -104.9378 C   0  0  0  0  0  0  0  0  0  0  0  0
   47.4150  -31.9317 -106.3643 C   0  0  0  0  0  0  0  0  0  0  0  0
   48.4283  -32.5278 -107.0872 N   0  0  0  0  0  0  0  0  0  0  0  0
   48.2263  -32.4703 -104.0067 N   0  0  0  0  0  0  0  0  0  0  0  0
   47.7410  -32.2051 -102.8304 C   0  0  0  0  0  0  0  0  0  0  0  0
   46.5748  -31.4808 -102.9145 N   0  0  0  0  0  0  0  0  0  0  0  0
  2  1  1  6  0  0  0
  2  3  1  0  0  0  0
  2  5  1  0  0  0  0
  3  4  1  0  0  0  0
  3 17  1  0  0  0  0
  5  6  1  0  0  0  0
  7  6  1  1  0  0  0
  7  8  1  0  0  0  0
  7  9  1  0  0  0  0
 10  9  1  6  0  0  0
 10 11  1  0  0  0  0
 10 12  1  0  0  0  0
 11 16  1  0  0  0  0
 12 13  1  1  0  0  0
 12 14  1  0  0  0  0
 14 15  1  1  0  0  0
 14 16  1  0  0  0  0
 16 27  1  6  0  0  0
 18 19  2  0  0  0  0
 18 23  1  0  0  0  0
 19 20  1  0  0  0  0
 20 21  2  0  0  0  0
 21 22  1  0  0  0  0
 21 27  1  0  0  0  0
 22 23  2  0  0  0  0
 22 25  1  0  0  0  0
 23 24  1  0  0  0  0
 25 26  2  0  0  0  0
 26 27  1  0  0  0  0
M  END
>  <CHROM.1>
-34.70806382,-176.28807592,164.66941751,-70.08995147,-125.38615405,-60.37413657
-15.33603963,47.00780938,-28.72653328,-103.35256082,-0.87664004,-1.13049136
-2.31005910

>  <Name>
ligand

>  <RI>
0

>  <Rbt.Current_Directory>
/home/itssahil/PROJECTS/Mol_Feturizer/New_Systems/rnas/4L81

>  <Rbt.Executable>
rbdock ($Id: //depot/dev/client3/rdock/2013.1/src/exe/rbdock.cxx#4 $)

>  <Rbt.Library>
libRbt.so (2013.1, Build901 2013/11/27)

>  <Rbt.Parameter_File>
/export/apps/rDock/src/rDock_2013.1_src/data/scripts/dock_solv.prm

>  <Rbt.Receptor>
prm/pocket_docking_6.prm

>  <SCORE>
-10.8256

>  <SCORE.INTER>
-9.61194

>  <SCORE.INTER.CONST>
1

>  <SCORE.INTER.POLAR>
0

>  <SCORE.INTER.ROT>
7

>  <SCORE.INTER.SOLV>
9.25334

>  <SCORE.INTER.VDW>
-17.7591

>  <SCORE.INTER.norm>
-0.355998

>  <SCORE.INTRA>
-1.23465

>  <SCORE.INTRA.DIHEDRAL>
0.306925

>  <SCORE.INTRA.DIHEDRAL.0>
8.34559

>  <SCORE.INTRA.POLAR>
0

>  <SCORE.INTRA.POLAR.0>
0

>  <SCORE.INTRA.REPUL>
0

>  <SCORE.INTRA.REPUL.0>
0

>  <SCORE.INTRA.SOLV>
-0.927452

>  <SCORE.INTRA.SOLV.lig_0>
-48.829

>  <SCORE.INTRA.VDW>
-0.924391

>  <SCORE.INTRA.VDW.0>
-1.77092

>  <SCORE.INTRA.norm>
-0.0457279

>  <SCORE.RESTR>
0.020972

>  <SCORE.RESTR.CAVITY>
0.020972

>  <SCORE.RESTR.norm>
0.000776742

>  <SCORE.SYSTEM>
0

>  <SCORE.SYSTEM.CONST>
0

>  <SCORE.SYSTEM.DIHEDRAL>
0

>  <SCORE.SYSTEM.SOLV>
0

>  <SCORE.SYSTEM.norm>
0

>  <SCORE.heavy>
27

>  <SCORE.norm>
-0.400949

>  <RMSD>
4.747

$$$$
ligand
 OpenBabel11021811503D
libRbt.so/2013.1/901 2013/11/27
 27 29  0  0  0  0  0  0  0  0999 V2000
   47.1698  -29.3441 -106.5508 N   0  0  0  0  0  0  0  0  0  0  0  0
   47.9646  -28.1139 -106.4640 C   0  0  2  0  0  0  0  0  0  0  0  0
   48.5353  -27.7839 -107.8271 C   0  0  0  0  0  0  0  0  0  0  0  0
   48.9432  -28.6764 -108.5550 O   0  0  0  0  0  0  0  0  0  0  0  0
   49.1205  -28.2645 -105.4656 C   0  0  0  0  0  0  0  0  0  0  0  0
   48.5922  -28.4820 -104.0548 C   0  0  0  0  0  0  0  0  0  0  0  0
   47.5868  -27.0803 -103.4323 S   0  0  2  0  0  0  0  0  0  0  0  0
   48.7889  -25.7229 -103.2536 C   0  0  0  0  0  0  0  0  0  0  0  0
   47.5375  -27.6391 -101.7311 C   0  0  0  0  0  0  0  0  0  0  0  0
   46.3308  -28.4778 -101.4036 C   0  0  1  0  0  0  0  0  0  0  0  0
   46.1305  -29.4039 -102.4848 O   0  0  0  0  0  0  0  0  0  0  0  0
   46.7920  -29.2736 -100.2497 C   0  0  1  0  0  0  0  0  0  0  0  0
   46.3469  -28.6645  -99.0388 O   0  0  0  0  0  0  0  0  0  0  0  0
   46.0868  -30.5785 -100.4548 C   0  0  1  0  0  0  0  0  0  0  0  0
   44.7774  -30.5418  -99.8503 O   0  0  0  0  0  0  0  0  0  0  0  0
   45.9525  -30.7575 -101.9968 C   0  0  2  0  0  0  0  0  0  0  0  0
   48.5620  -26.6314 -108.2221 O   0  0  0  0  0  0  0  0  0  0  0  0
   50.9829  -32.4176 -102.3661 N   0  0  0  0  0  0  0  0  0  0  0  0
   50.4658  -31.5353 -101.4762 C   0  0  0  0  0  0  0  0  0  0  0  0
   49.1519  -31.2282 -101.4628 N   0  0  0  0  0  0  0  0  0  0  0  0
   48.3232  -31.7243 -102.3958 C   0  0  0  0  0  0  0  0  0  0  0  0
   48.8393  -32.6359 -103.3884 C   0  0  0  0  0  0  0  0  0  0  0  0
   50.2235  -32.9766 -103.3320 C   0  0  0  0  0  0  0  0  0  0  0  0
   50.7807  -33.8498 -104.2441 N   0  0  0  0  0  0  0  0  0  0  0  0
   47.8211  -32.9714 -104.1893 N   0  0  0  0  0  0  0  0  0  0  0  0
   46.7494  -32.3530 -103.7910 C   0  0  0  0  0  0  0  0  0  0  0  0
   46.9948  -31.5746 -102.6840 N   0  0  0  0  0  0  0  0  0  0  0  0
  2  1  1  6  0  0  0
  2  3  1  0  0  0  0
  2  5  1  0  0  0  0
  3  4  1  0  0  0  0
  3 17  1  0  0  0  0
  5  6  1  0  0  0  0
  7  6  1  6  0  0  0
  7  8  1  0  0  0  0
  7  9  1  0  0  0  0
 10  9  1  6  0  0  0
 10 11  1  0  0  0  0
 10 12  1  0  0  0  0
 11 16  1  0  0  0  0
 12 13  1  1  0  0  0
 12 14  1  0  0  0  0
 14 15  1  1  0  0  0
 14 16  1  0  0  0  0
 16 27  1  6  0  0  0
 18 19  2  0  0  0  0
 18 23  1  0  0  0  0
 19 20  1  0  0  0  0
 20 21  2  0  0  0  0
 21 22  1  0  0  0  0
 21 27  1  0  0  0  0
 22 23  2  0  0  0  0
 22 25  1  0  0  0  0
 23 24  1  0  0  0  0
 25 26  2  0  0  0  0
 26 27  1  0  0  0  0
M  END
>  <CHROM.1>
-38.83077091,-63.93076439,-61.63516431,-67.58201458,-92.99740572,43.40874318
80.67479177,47.93127883,-29.73685083,-103.36256712,-1.17070969,-1.03324075
2.39348246

>  <Name>
ligand

>  <RI>
0

>  <Rbt.Current_Directory>
/home/itssahil/PROJECTS/Mol_Feturizer/New_Systems/rnas/4L81

>  <Rbt.Executable>
rbdock ($Id: //depot/dev/client3/rdock/2013.1/src/exe/rbdock.cxx#4 $)

>  <Rbt.Library>
libRbt.so (2013.1, Build901 2013/11/27)

>  <Rbt.Parameter_File>
/export/apps/rDock/src/rDock_2013.1_src/data/scripts/dock_solv.prm

>  <Rbt.Receptor>
prm/pocket_docking_6.prm

>  <SCORE>
-15.1798

>  <SCORE.INTER>
-11.6621

>  <SCORE.INTER.CONST>
1

>  <SCORE.INTER.POLAR>
0

>  <SCORE.INTER.ROT>
7

>  <SCORE.INTER.SOLV>
11.4098

>  <SCORE.INTER.VDW>
-19.8447

>  <SCORE.INTER.norm>
-0.43193

>  <SCORE.INTRA>
-3.51766

>  <SCORE.INTRA.DIHEDRAL>
-2.38211

>  <SCORE.INTRA.DIHEDRAL.0>
8.34559

>  <SCORE.INTRA.POLAR>
0

>  <SCORE.INTRA.POLAR.0>
0

>  <SCORE.INTRA.REPUL>
0

>  <SCORE.INTRA.REPUL.0>
0

>  <SCORE.INTRA.SOLV>
0.178901

>  <SCORE.INTRA.SOLV.lig_0>
-48.829

>  <SCORE.INTRA.VDW>
-2.41605

>  <SCORE.INTRA.VDW.0>
-1.77092

>  <SCORE.INTRA.norm>
-0.130284

>  <SCORE.RESTR>
0

>  <SCORE.RESTR.CAVITY>
0

>  <SCORE.RESTR.norm>
0

>  <SCORE.SYSTEM>
0

>  <SCORE.SYSTEM.CONST>
0

>  <SCORE.SYSTEM.DIHEDRAL>
0

>  <SCORE.SYSTEM.SOLV>
0

>  <SCORE.SYSTEM.norm>
0

>  <SCORE.heavy>
27

>  <SCORE.norm>
-0.562214

>  <RMSD>
4.758

$$$$
ligand
 OpenBabel11021811503D
libRbt.so/2013.1/901 2013/11/27
 27 29  0  0  0  0  0  0  0  0999 V2000
   48.2828  -28.1831 -106.9556 N   0  0  0  0  0  0  0  0  0  0  0  0
   48.2899  -26.7523 -106.6309 C   0  0  2  0  0  0  0  0  0  0  0  0
   49.7028  -26.3146 -106.3069 C   0  0  0  0  0  0  0  0  0  0  0  0
   50.5516  -27.1441 -106.0167 O   0  0  0  0  0  0  0  0  0  0  0  0
   47.3880  -26.4478 -105.4271 C   0  0  0  0  0  0  0  0  0  0  0  0
   47.7334  -27.3493 -104.2503 C   0  0  0  0  0  0  0  0  0  0  0  0
   48.1843  -26.4220 -102.7336 S   0  0  2  0  0  0  0  0  0  0  0  0
   49.9251  -25.9576 -103.0042 C   0  0  0  0  0  0  0  0  0  0  0  0
   48.4346  -27.8695 -101.7085 C   0  0  0  0  0  0  0  0  0  0  0  0
   47.1596  -28.5844 -101.3479 C   0  0  1  0  0  0  0  0  0  0  0  0
   46.8649  -29.5190 -102.3999 O   0  0  0  0  0  0  0  0  0  0  0  0
   47.5574  -29.3857 -100.1743 C   0  0  1  0  0  0  0  0  0  0  0  0
   47.1816  -28.7038  -98.9788 O   0  0  0  0  0  0  0  0  0  0  0  0
   46.7340  -30.6258 -100.3358 C   0  0  1  0  0  0  0  0  0  0  0  0
   45.4394  -30.4520  -99.7234 O   0  0  0  0  0  0  0  0  0  0  0  0
   46.5688  -30.8360 -101.8709 C   0  0  2  0  0  0  0  0  0  0  0  0
   50.0125  -25.1375 -106.3652 O   0  0  0  0  0  0  0  0  0  0  0  0
   51.5537  -32.2074 -103.0826 N   0  0  0  0  0  0  0  0  0  0  0  0
   51.1403  -31.1186 -102.3886 C   0  0  0  0  0  0  0  0  0  0  0  0
   49.8369  -30.9067 -102.1107 N   0  0  0  0  0  0  0  0  0  0  0  0
   48.8914  -31.7293 -102.5933 C   0  0  0  0  0  0  0  0  0  0  0  0
   49.2837  -32.8789 -103.3724 C   0  0  0  0  0  0  0  0  0  0  0  0
   50.6760  -33.0955 -103.5955 C   0  0  0  0  0  0  0  0  0  0  0  0
   51.1213  -34.1802 -104.3233 N   0  0  0  0  0  0  0  0  0  0  0  0
   48.1642  -33.5188 -103.7301 N   0  0  0  0  0  0  0  0  0  0  0  0
   47.1397  -32.8733 -103.2577 C   0  0  0  0  0  0  0  0  0  0  0  0
   47.5253  -31.7646 -102.5411 N   0  0  0  0  0  0  0  0  0  0  0  0
  2  1  1  1  0  0  0
  2  3  1  0  0  0  0
  2  5  1  0  0  0  0
  3  4  1  0  0  0  0
  3 17  1  0  0  0  0
  5  6  1  0  0  0  0
  7  6  1  6  0  0  0
  7  8  1  0  0  0  0
  7  9  1  0  0  0  0
 10  9  1  6  0  0  0
 10 11  1  0  0  0  0
 10 12  1  0  0  0  0
 11 16  1  0  0  0  0
 12 13  1  1  0  0  0
 12 14  1  0  0  0  0
 14 15  1  1  0  0  0
 14 16  1  0  0  0  0
 16 27  1  6  0  0  0
 18 19  2  0  0  0  0
 18 23  1  0  0  0  0
 19 20  1  0  0  0  0
 20 21  2  0  0  0  0
 21 22  1  0  0  0  0
 21 27  1  0  0  0  0
 22 23  2  0  0  0  0
 22 25  1  0  0  0  0
 23 24  1  0  0  0  0
 25 26  2  0  0  0  0
 26 27  1  0  0  0  0
M  END
>  <CHROM.1>
-18.22095388,52.07756773,122.70944565,-80.67992430,-71.43586021,87.00026447
55.81251481,48.52852047,-29.38567680,-103.12546659,-1.42915244,-0.95356555
2.75796217

>  <Name>
ligand

>  <RI>
0

>  <Rbt.Current_Directory>
/home/itssahil/PROJECTS/Mol_Feturizer/New_Systems/rnas/4L81

>  <Rbt.Executable>
rbdock ($Id: //depot/dev/client3/rdock/2013.1/src/exe/rbdock.cxx#4 $)

>  <Rbt.Library>
libRbt.so (2013.1, Build901 2013/11/27)

>  <Rbt.Parameter_File>
/export/apps/rDock/src/rDock_2013.1_src/data/scripts/dock_solv.prm

>  <Rbt.Receptor>
prm/pocket_docking_6.prm

>  <SCORE>
-13.1923

>  <SCORE.INTER>
-12.9914

>  <SCORE.INTER.CONST>
1

>  <SCORE.INTER.POLAR>
0

>  <SCORE.INTER.ROT>
7

>  <SCORE.INTER.SOLV>
12.0615

>  <SCORE.INTER.VDW>
-20.9481

>  <SCORE.INTER.norm>
-0.481163

>  <SCORE.INTRA>
-0.20094

>  <SCORE.INTRA.DIHEDRAL>
3.26518

>  <SCORE.INTRA.DIHEDRAL.0>
8.34559

>  <SCORE.INTRA.POLAR>
0

>  <SCORE.INTRA.POLAR.0>
0

>  <SCORE.INTRA.REPUL>
0

>  <SCORE.INTRA.REPUL.0>
0

>  <SCORE.INTRA.SOLV>
-0.430576

>  <SCORE.INTRA.SOLV.lig_0>
-48.829

>  <SCORE.INTRA.VDW>
-1.61824

>  <SCORE.INTRA.VDW.0>
-1.77092

>  <SCORE.INTRA.norm>
-0.00744224

>  <SCORE.RESTR>
0

>  <SCORE.RESTR.CAVITY>
0

>  <SCORE.RESTR.norm>
0

>  <SCORE.SYSTEM>
0

>  <SCORE.SYSTEM.CONST>
0

>  <SCORE.SYSTEM.DIHEDRAL>
0

>  <SCORE.SYSTEM.SOLV>
0

>  <SCORE.SYSTEM.norm>
0

>  <SCORE.heavy>
27

>  <SCORE.norm>
-0.488605

>  <RMSD>
4.792

$$$$
ligand
 OpenBabel11021811503D
libRbt.so/2013.1/901 2013/11/27
 27 29  0  0  0  0  0  0  0  0999 V2000
   47.1115  -28.4202 -106.8120 N   0  0  0  0  0  0  0  0  0  0  0  0
   48.0010  -27.2834 -106.5488 C   0  0  2  0  0  0  0  0  0  0  0  0
   48.5718  -26.7753 -107.8561 C   0  0  0  0  0  0  0  0  0  0  0  0
   48.6411  -27.5158 -108.8254 O   0  0  0  0  0  0  0  0  0  0  0  0
   49.1589  -27.6821 -105.6238 C   0  0  0  0  0  0  0  0  0  0  0  0
   48.6357  -28.1582 -104.2760 C   0  0  0  0  0  0  0  0  0  0  0  0
   47.7157  -26.8651 -103.3569 S   0  0  2  0  0  0  0  0  0  0  0  0
   48.9827  -25.6128 -102.9744 C   0  0  0  0  0  0  0  0  0  0  0  0
   47.6996  -27.7371 -101.7923 C   0  0  0  0  0  0  0  0  0  0  0  0
   46.4532  -28.5505 -101.5648 C   0  0  1  0  0  0  0  0  0  0  0  0
   46.3564  -29.5156 -102.6260 O   0  0  0  0  0  0  0  0  0  0  0  0
   46.7777  -29.3058 -100.3393 C   0  0  1  0  0  0  0  0  0  0  0  0
   46.2145  -28.6460  -99.2066 O   0  0  0  0  0  0  0  0  0  0  0  0
   46.0802  -30.6105 -100.5699 C   0  0  1  0  0  0  0  0  0  0  0  0
   44.7144  -30.5375 -100.1109 O   0  0  0  0  0  0  0  0  0  0  0  0
   46.1085  -30.8476 -102.1097 C   0  0  2  0  0  0  0  0  0  0  0  0
   48.9351  -25.6169 -107.9616 O   0  0  0  0  0  0  0  0  0  0  0  0
   51.2080  -32.3282 -102.0919 N   0  0  0  0  0  0  0  0  0  0  0  0
   50.6240  -31.3624 -101.3409 C   0  0  0  0  0  0  0  0  0  0  0  0
   49.3000  -31.1115 -101.4116 N   0  0  0  0  0  0  0  0  0  0  0  0
   48.5274  -31.7568 -102.3005 C   0  0  0  0  0  0  0  0  0  0  0  0
   49.1155  -32.7646 -103.1495 C   0  0  0  0  0  0  0  0  0  0  0  0
   50.5082  -33.0369 -103.0030 C   0  0  0  0  0  0  0  0  0  0  0  0
   51.1327  -33.9948 -103.7757 N   0  0  0  0  0  0  0  0  0  0  0  0
   48.1425  -33.2418 -103.9346 N   0  0  0  0  0  0  0  0  0  0  0  0
   47.0337  -32.6234 -103.6557 C   0  0  0  0  0  0  0  0  0  0  0  0
   47.2066  -31.7009 -102.6503 N   0  0  0  0  0  0  0  0  0  0  0  0
  2  1  1  6  0  0  0
  2  3  1  0  0  0  0
  2  5  1  0  0  0  0
  3  4  1  0  0  0  0
  3 17  1  0  0  0  0
  5  6  1  0  0  0  0
  7  6  1  6  0  0  0
  7  8  1  0  0  0  0
  7  9  1  0  0  0  0
 10  9  1  6  0  0  0
 10 11  1  0  0  0  0
 10 12  1  0  0  0  0
 11 16  1  0  0  0  0
 12 13  1  1  0  0  0
 12 14  1  0  0  0  0
 14 15  1  6  0  0  0
 14 16  1  0  0  0  0
 16 27  1  1  0  0  0
 18 19  2  0  0  0  0
 18 23  1  0  0  0  0
 19 20  1  0  0  0  0
 20 21  2  0  0  0  0
 21 22  1  0  0  0  0
 21 27  1  0  0  0  0
 22 23  2  0  0  0  0
 22 25  1  0  0  0  0
 23 24  1  0  0  0  0
 25 26  2  0  0  0  0
 26 27  1  0  0  0  0
M  END
>  <CHROM.1>
-23.83425307,-61.04160438,-62.20445415,-65.93604459,-94.42074119,59.60674184
73.47173546,48.05339384,-29.53794195,-103.34669312,-1.44919944,-0.96098643
2.41982445

>  <Name>
ligand

>  <RI>
0

>  <Rbt.Current_Directory>
/home/itssahil/PROJECTS/Mol_Feturizer/New_Systems/rnas/4L81

>  <Rbt.Executable>
rbdock ($Id: //depot/dev/client3/rdock/2013.1/src/exe/rbdock.cxx#4 $)

>  <Rbt.Library>
libRbt.so (2013.1, Build901 2013/11/27)

>  <Rbt.Parameter_File>
/export/apps/rDock/src/rDock_2013.1_src/data/scripts/dock_solv.prm

>  <Rbt.Receptor>
prm/pocket_docking_5.prm

>  <SCORE>
-15.71

>  <SCORE.INTER>
-12.2787

>  <SCORE.INTER.CONST>
1

>  <SCORE.INTER.POLAR>
0

>  <SCORE.INTER.ROT>
7

>  <SCORE.INTER.SOLV>
12.023

>  <SCORE.INTER.VDW>
-20.4601

>  <SCORE.INTER.norm>
-0.454766

>  <SCORE.INTRA>
-3.4499

>  <SCORE.INTRA.DIHEDRAL>
-3.08393

>  <SCORE.INTRA.DIHEDRAL.0>
8.34559

>  <SCORE.INTRA.POLAR>
0

>  <SCORE.INTRA.POLAR.0>
0

>  <SCORE.INTRA.REPUL>
0

>  <SCORE.INTRA.REPUL.0>
0

>  <SCORE.INTRA.SOLV>
0.106204

>  <SCORE.INTRA.SOLV.lig_0>
-48.829

>  <SCORE.INTRA.VDW>
-1.96103

>  <SCORE.INTRA.VDW.0>
-1.77092

>  <SCORE.INTRA.norm>
-0.127774

>  <SCORE.RESTR>
0.0186234

>  <SCORE.RESTR.CAVITY>
0.0186234

>  <SCORE.RESTR.norm>
0.000689757

>  <SCORE.SYSTEM>
0

>  <SCORE.SYSTEM.CONST>
0

>  <SCORE.SYSTEM.DIHEDRAL>
0

>  <SCORE.SYSTEM.SOLV>
0

>  <SCORE.SYSTEM.norm>
0

>  <SCORE.heavy>
27

>  <SCORE.norm>
-0.581851

>  <RMSD>
4.798

$$$$
ligand
 OpenBabel11021811503D
libRbt.so/2013.1/901 2013/11/27
 27 29  0  0  0  0  0  0  0  0999 V2000
   47.5943  -23.3299 -105.7205 N   0  0  0  0  0  0  0  0  0  0  0  0
   48.7549  -23.2635 -104.8254 C   0  0  2  0  0  0  0  0  0  0  0  0
   49.9218  -23.9937 -105.4560 C   0  0  0  0  0  0  0  0  0  0  0  0
   49.7337  -24.7700 -106.3805 O   0  0  0  0  0  0  0  0  0  0  0  0
   48.4478  -23.9017 -103.4638 C   0  0  0  0  0  0  0  0  0  0  0  0
   47.9930  -25.3445 -103.6325 C   0  0  0  0  0  0  0  0  0  0  0  0
   48.7477  -26.4902 -102.4155 S   0  0  2  0  0  0  0  0  0  0  0  0
   50.4393  -26.7448 -103.0424 C   0  0  0  0  0  0  0  0  0  0  0  0
   47.9796  -27.9717 -103.0667 C   0  0  0  0  0  0  0  0  0  0  0  0
   47.3263  -28.8279 -102.0146 C   0  0  1  0  0  0  0  0  0  0  0  0
   46.6093  -29.8791 -102.6839 O   0  0  0  0  0  0  0  0  0  0  0  0
   48.4806  -29.4642 -101.3510 C   0  0  1  0  0  0  0  0  0  0  0  0
   48.8059  -28.7456 -100.1623 O   0  0  0  0  0  0  0  0  0  0  0  0
   47.9454  -30.8179 -100.9998 C   0  0  1  0  0  0  0  0  0  0  0  0
   47.2853  -30.7794  -99.7176 O   0  0  0  0  0  0  0  0  0  0  0  0
   46.9164  -31.1762 -102.1137 C   0  0  2  0  0  0  0  0  0  0  0  0
   51.0592  -23.7886 -105.0698 O   0  0  0  0  0  0  0  0  0  0  0  0
   50.8171  -33.8962 -104.4768 N   0  0  0  0  0  0  0  0  0  0  0  0
   50.8832  -33.1891 -103.3220 C   0  0  0  0  0  0  0  0  0  0  0  0
   49.8000  -32.5733 -102.8038 N   0  0  0  0  0  0  0  0  0  0  0  0
   48.6325  -32.5678 -103.4675 C   0  0  0  0  0  0  0  0  0  0  0  0
   48.5280  -33.2737 -104.7218 C   0  0  0  0  0  0  0  0  0  0  0  0
   49.6827  -33.9576 -105.2058 C   0  0  0  0  0  0  0  0  0  0  0  0
   49.6499  -34.6604 -106.3931 N   0  0  0  0  0  0  0  0  0  0  0  0
   47.2782  -33.1070 -105.1700 N   0  0  0  0  0  0  0  0  0  0  0  0
   46.6216  -32.3693 -104.3250 C   0  0  0  0  0  0  0  0  0  0  0  0
   47.4021  -32.0120 -103.2504 N   0  0  0  0  0  0  0  0  0  0  0  0
  2  1  1  6  0  0  0
  2  3  1  0  0  0  0
  2  5  1  0  0  0  0
  3  4  1  0  0  0  0
  3 17  1  0  0  0  0
  5  6  1  0  0  0  0
  7  6  1  6  0  0  0
  7  8  1  0  0  0  0
  7  9  1  0  0  0  0
 10  9  1  6  0  0  0
 10 11  1  0  0  0  0
 10 12  1  0  0  0  0
 11 16  1  0  0  0  0
 12 13  1  1  0  0  0
 12 14  1  0  0  0  0
 14 15  1  1  0  0  0
 14 16  1  0  0  0  0
 16 27  1  6  0  0  0
 18 19  2  0  0  0  0
 18 23  1  0  0  0  0
 19 20  1  0  0  0  0
 20 21  2  0  0  0  0
 21 22  1  0  0  0  0
 21 27  1  0  0  0  0
 22 23  2  0  0  0  0
 22 25  1  0  0  0  0
 23 24  1  0  0  0  0
 25 26  2  0  0  0  0
 26 27  1  0  0  0  0
M  END
>  <CHROM.1>
-16.79853637,56.81811477,136.77868777,-76.88823133,-131.24578647,172.71349622
115.52799104,48.65027597,-29.05003456,-103.44538760,-1.46237632,-1.15924847
-3.11686131

>  <Name>
ligand

>  <RI>
0

>  <Rbt.Current_Directory>
/home/itssahil/PROJECTS/Mol_Feturizer/New_Systems/rnas/4L81

>  <Rbt.Executable>
rbdock ($Id: //depot/dev/client3/rdock/2013.1/src/exe/rbdock.cxx#4 $)

>  <Rbt.Library>
libRbt.so (2013.1, Build901 2013/11/27)

>  <Rbt.Parameter_File>
/export/apps/rDock/src/rDock_2013.1_src/data/scripts/dock_solv.prm

>  <Rbt.Receptor>
prm/pocket_docking_6.prm

>  <SCORE>
-10.5215

>  <SCORE.INTER>
-11.4907

>  <SCORE.INTER.CONST>
1

>  <SCORE.INTER.POLAR>
0

>  <SCORE.INTER.ROT>
7

>  <SCORE.INTER.SOLV>
7.64339

>  <SCORE.INTER.VDW>
-18.4749

>  <SCORE.INTER.norm>
-0.425581

>  <SCORE.INTRA>
0.964008

>  <SCORE.INTRA.DIHEDRAL>
4.24701

>  <SCORE.INTRA.DIHEDRAL.0>
8.34559

>  <SCORE.INTRA.POLAR>
0

>  <SCORE.INTRA.POLAR.0>
0

>  <SCORE.INTRA.REPUL>
0

>  <SCORE.INTRA.REPUL.0>
0

>  <SCORE.INTRA.SOLV>
-0.363576

>  <SCORE.INTRA.SOLV.lig_0>
-48.829

>  <SCORE.INTRA.VDW>
-0.97771

>  <SCORE.INTRA.VDW.0>
-1.77092

>  <SCORE.INTRA.norm>
0.035704

>  <SCORE.RESTR>
0.00512818

>  <SCORE.RESTR.CAVITY>
0.00512818

>  <SCORE.RESTR.norm>
0.000189933

>  <SCORE.SYSTEM>
0

>  <SCORE.SYSTEM.CONST>
0

>  <SCORE.SYSTEM.DIHEDRAL>
0

>  <SCORE.SYSTEM.SOLV>
0

>  <SCORE.SYSTEM.norm>
0

>  <SCORE.heavy>
27

>  <SCORE.norm>
-0.389687

>  <RMSD>
4.802

$$$$
ligand
 OpenBabel11021811503D
libRbt.so/2013.1/901 2013/11/27
 27 29  0  0  0  0  0  0  0  0999 V2000
   50.2016  -24.5475 -103.3328 N   0  0  0  0  0  0  0  0  0  0  0  0
   50.2025  -25.8925 -103.9191 C   0  0  2  0  0  0  0  0  0  0  0  0
   50.5560  -25.8028 -105.3887 C   0  0  0  0  0  0  0  0  0  0  0  0
   50.5579  -24.7204 -105.9553 O   0  0  0  0  0  0  0  0  0  0  0  0
   48.8296  -26.5641 -103.7793 C   0  0  0  0  0  0  0  0  0  0  0  0
   48.8942  -28.0227 -104.2094 C   0  0  0  0  0  0  0  0  0  0  0  0
   47.2501  -28.8322 -104.2791 S   0  0  2  0  0  0  0  0  0  0  0  0
   46.2670  -27.7377 -105.3538 C   0  0  0  0  0  0  0  0  0  0  0  0
   46.6917  -28.2372 -102.6844 C   0  0  0  0  0  0  0  0  0  0  0  0
   46.9690  -29.1894 -101.5515 C   0  0  1  0  0  0  0  0  0  0  0  0
   46.4868  -30.4875 -101.9381 O   0  0  0  0  0  0  0  0  0  0  0  0
   48.4423  -29.2725 -101.5504 C   0  0  1  0  0  0  0  0  0  0  0  0
   48.9713  -28.3884 -100.5636 O   0  0  0  0  0  0  0  0  0  0  0  0
   48.6853  -30.6937 -101.1465 C   0  0  1  0  0  0  0  0  0  0  0  0
   48.7214  -30.8077  -99.7088 O   0  0  0  0  0  0  0  0  0  0  0  0
   47.4864  -31.5130 -101.7119 C   0  0  2  0  0  0  0  0  0  0  0  0
   50.8730  -26.8027 -106.0089 O   0  0  0  0  0  0  0  0  0  0  0  0
   50.6865  -33.8158 -105.2692 N   0  0  0  0  0  0  0  0  0  0  0  0
   51.0330  -33.2582 -104.0831 C   0  0  0  0  0  0  0  0  0  0  0  0
   50.1103  -32.7397 -103.2459 N   0  0  0  0  0  0  0  0  0  0  0  0
   48.8175  -32.6798 -103.6042 C   0  0  0  0  0  0  0  0  0  0  0  0
   48.4096  -33.2247 -104.8767 C   0  0  0  0  0  0  0  0  0  0  0  0
   49.4096  -33.8132 -105.7068 C   0  0  0  0  0  0  0  0  0  0  0  0
   49.0875  -34.3616 -106.9316 N   0  0  0  0  0  0  0  0  0  0  0  0
   47.0897  -33.0341 -104.9873 N   0  0  0  0  0  0  0  0  0  0  0  0
   46.6604  -32.4252 -103.9222 C   0  0  0  0  0  0  0  0  0  0  0  0
   47.6790  -32.1866 -103.0292 N   0  0  0  0  0  0  0  0  0  0  0  0
  2  1  1  6  0  0  0
  2  3  1  0  0  0  0
  2  5  1  0  0  0  0
  3  4  1  0  0  0  0
  3 17  1  0  0  0  0
  5  6  1  0  0  0  0
  7  6  1  1  0  0  0
  7  8  1  0  0  0  0
  7  9  1  0  0  0  0
 10  9  1  6  0  0  0
 10 11  1  0  0  0  0
 10 12  1  0  0  0  0
 11 16  1  0  0  0  0
 12 13  1  1  0  0  0
 12 14  1  0  0  0  0
 14 15  1  1  0  0  0
 14 16  1  0  0  0  0
 16 27  1  6  0  0  0
 18 19  2  0  0  0  0
 18 23  1  0  0  0  0
 19 20  1  0  0  0  0
 20 21  2  0  0  0  0
 21 22  1  0  0  0  0
 21 27  1  0  0  0  0
 22 23  2  0  0  0  0
 22 25  1  0  0  0  0
 23 24  1  0  0  0  0
 25 26  2  0  0  0  0
 26 27  1  0  0  0  0
M  END
>  <CHROM.1>
-12.75730233,-171.96653148,-172.46768481,53.73385312,-92.87233098,-50.15369554
143.01757148,48.63390201,-29.81214931,-103.66163271,-1.32470587,-1.09582175
-2.93910278

>  <Name>
ligand

>  <RI>
0

>  <Rbt.Current_Directory>
/home/itssahil/PROJECTS/Mol_Feturizer/New_Systems/rnas/4L81

>  <Rbt.Executable>
rbdock ($Id: //depot/dev/client3/rdock/2013.1/src/exe/rbdock.cxx#4 $)

>  <Rbt.Library>
libRbt.so (2013.1, Build901 2013/11/27)

>  <Rbt.Parameter_File>
/export/apps/rDock/src/rDock_2013.1_src/data/scripts/dock_solv.prm

>  <Rbt.Receptor>
prm/pocket_docking_6.prm

>  <SCORE>
-7.9046

>  <SCORE.INTER>
-7.59815

>  <SCORE.INTER.CONST>
1

>  <SCORE.INTER.POLAR>
0

>  <SCORE.INTER.ROT>
7

>  <SCORE.INTER.SOLV>
9.4428

>  <SCORE.INTER.VDW>
-16.4797

>  <SCORE.INTER.norm>
-0.281413

>  <SCORE.INTRA>
-0.312458

>  <SCORE.INTRA.DIHEDRAL>
-2.49535

>  <SCORE.INTRA.DIHEDRAL.0>
8.34559

>  <SCORE.INTRA.POLAR>
0

>  <SCORE.INTRA.POLAR.0>
0

>  <SCORE.INTRA.REPUL>
0

>  <SCORE.INTRA.REPUL.0>
0

>  <SCORE.INTRA.SOLV>
-0.710618

>  <SCORE.INTRA.SOLV.lig_0>
-48.829

>  <SCORE.INTRA.VDW>
1.29053

>  <SCORE.INTRA.VDW.0>
-1.77092

>  <SCORE.INTRA.norm>
-0.0115725

>  <SCORE.RESTR>
0.00600358

>  <SCORE.RESTR.CAVITY>
0.00600358

>  <SCORE.RESTR.norm>
0.000222355

>  <SCORE.SYSTEM>
0

>  <SCORE.SYSTEM.CONST>
0

>  <SCORE.SYSTEM.DIHEDRAL>
0

>  <SCORE.SYSTEM.SOLV>
0

>  <SCORE.SYSTEM.norm>
0

>  <SCORE.heavy>
27

>  <SCORE.norm>
-0.292763

>  <RMSD>
4.816

$$$$
ligand
 OpenBabel11021811503D
libRbt.so/2013.1/901 2013/11/27
 27 29  0  0  0  0  0  0  0  0999 V2000
   48.8597  -26.0062 -107.5400 N   0  0  0  0  0  0  0  0  0  0  0  0
   47.9297  -27.1273 -107.3640 C   0  0  2  0  0  0  0  0  0  0  0  0
   48.0876  -28.1000 -108.5136 C   0  0  0  0  0  0  0  0  0  0  0  0
   47.9550  -29.3000 -108.3258 O   0  0  0  0  0  0  0  0  0  0  0  0
   46.4737  -26.6440 -107.3197 C   0  0  0  0  0  0  0  0  0  0  0  0
   46.2292  -25.7738 -106.0951 C   0  0  0  0  0  0  0  0  0  0  0  0
   46.3910  -26.6863 -104.5125 S   0  0  2  0  0  0  0  0  0  0  0  0
   44.6791  -27.1505 -104.0962 C   0  0  0  0  0  0  0  0  0  0  0  0
   46.5464  -25.2289 -103.4826 C   0  0  0  0  0  0  0  0  0  0  0  0
   47.8538  -25.1483 -102.7402 C   0  0  1  0  0  0  0  0  0  0  0  0
   48.1069  -26.4351 -102.1512 O   0  0  0  0  0  0  0  0  0  0  0  0
   48.8360  -24.9851 -103.8293 C   0  0  1  0  0  0  0  0  0  0  0  0
   49.1597  -23.6037 -103.9797 O   0  0  0  0  0  0  0  0  0  0  0  0
   50.0232  -25.7345 -103.3086 C   0  0  1  0  0  0  0  0  0  0  0  0
   50.8454  -24.8707 -102.4967 O   0  0  0  0  0  0  0  0  0  0  0  0
   49.4524  -26.8933 -102.4371 C   0  0  2  0  0  0  0  0  0  0  0  0
   48.3149  -27.6927 -109.6393 O   0  0  0  0  0  0  0  0  0  0  0  0
   47.5228  -31.8401 -102.3716 N   0  0  0  0  0  0  0  0  0  0  0  0
   47.4102  -30.8950 -101.4062 C   0  0  0  0  0  0  0  0  0  0  0  0
   47.9144  -29.6535 -101.5659 N   0  0  0  0  0  0  0  0  0  0  0  0
   48.6269  -29.3393 -102.6600 C   0  0  0  0  0  0  0  0  0  0  0  0
   48.8071  -30.3282 -103.6955 C   0  0  0  0  0  0  0  0  0  0  0  0
   48.2101  -31.6107 -103.5105 C   0  0  0  0  0  0  0  0  0  0  0  0
   48.3346  -32.5996 -104.4651 N   0  0  0  0  0  0  0  0  0  0  0  0
   49.5488  -29.7672 -104.6577 N   0  0  0  0  0  0  0  0  0  0  0  0
   49.8421  -28.5499 -104.3089 C   0  0  0  0  0  0  0  0  0  0  0  0
   49.2949  -28.2260 -103.0893 N   0  0  0  0  0  0  0  0  0  0  0  0
  2  1  1  6  0  0  0
  2  3  1  0  0  0  0
  2  5  1  0  0  0  0
  3  4  1  0  0  0  0
  3 17  1  0  0  0  0
  5  6  1  0  0  0  0
  7  6  1  6  0  0  0
  7  8  1  0  0  0  0
  7  9  1  0  0  0  0
 10  9  1  6  0  0  0
 10 11  1  0  0  0  0
 10 12  1  0  0  0  0
 11 16  1  0  0  0  0
 12 13  1  1  0  0  0
 12 14  1  0  0  0  0
 14 15  1  1  0  0  0
 14 16  1  0  0  0  0
 16 27  1  6  0  0  0
 18 19  2  0  0  0  0
 18 23  1  0  0  0  0
 19 20  1  0  0  0  0
 20 21  2  0  0  0  0
 21 22  1  0  0  0  0
 21 27  1  0  0  0  0
 22 23  2  0  0  0  0
 22 25  1  0  0  0  0
 23 24  1  0  0  0  0
 25 26  2  0  0  0  0
 26 27  1  0  0  0  0
M  END
>  <CHROM.1>
145.29896076,-64.98868776,-65.48110985,-96.03653994,-118.56837594,-46.39752763
-54.24932635,48.10193019,-27.65712429,-104.47304611,1.93976218,-1.40952168
-0.23055109

>  <Name>
ligand

>  <RI>
0

>  <Rbt.Current_Directory>
/home/itssahil/PROJECTS/Mol_Feturizer/New_Systems/rnas/4L81

>  <Rbt.Executable>
rbdock ($Id: //depot/dev/client3/rdock/2013.1/src/exe/rbdock.cxx#4 $)

>  <Rbt.Library>
libRbt.so (2013.1, Build901 2013/11/27)

>  <Rbt.Parameter_File>
/export/apps/rDock/src/rDock_2013.1_src/data/scripts/dock_solv.prm

>  <Rbt.Receptor>
prm/pocket_docking_7.prm

>  <SCORE>
-8.91783

>  <SCORE.INTER>
-7.80448

>  <SCORE.INTER.CONST>
1

>  <SCORE.INTER.POLAR>
0

>  <SCORE.INTER.ROT>
7

>  <SCORE.INTER.SOLV>
10.7596

>  <SCORE.INTER.VDW>
-17.0562

>  <SCORE.INTER.norm>
-0.289055

>  <SCORE.INTRA>
-1.11335

>  <SCORE.INTRA.DIHEDRAL>
1.62467

>  <SCORE.INTRA.DIHEDRAL.0>
8.34559

>  <SCORE.INTRA.POLAR>
0

>  <SCORE.INTRA.POLAR.0>
0

>  <SCORE.INTRA.REPUL>
0

>  <SCORE.INTRA.REPUL.0>
0

>  <SCORE.INTRA.SOLV>
0.895051

>  <SCORE.INTRA.SOLV.lig_0>
-48.829

>  <SCORE.INTRA.VDW>
-2.37321

>  <SCORE.INTRA.VDW.0>
-1.77092

>  <SCORE.INTRA.norm>
-0.0412351

>  <SCORE.RESTR>
0

>  <SCORE.RESTR.CAVITY>
0

>  <SCORE.RESTR.norm>
0

>  <SCORE.SYSTEM>
0

>  <SCORE.SYSTEM.CONST>
0

>  <SCORE.SYSTEM.DIHEDRAL>
0

>  <SCORE.SYSTEM.SOLV>
0

>  <SCORE.SYSTEM.norm>
0

>  <SCORE.heavy>
27

>  <SCORE.norm>
-0.33029

>  <RMSD>
4.817

$$$$
ligand
 OpenBabel11021811503D
libRbt.so/2013.1/901 2013/11/27
 27 29  0  0  0  0  0  0  0  0999 V2000
   43.6090  -30.2212 -102.6370 N   0  0  0  0  0  0  0  0  0  0  0  0
   44.9439  -29.8485 -103.1184 C   0  0  2  0  0  0  0  0  0  0  0  0
   45.5361  -30.9982 -103.9060 C   0  0  0  0  0  0  0  0  0  0  0  0
   46.2363  -30.7778 -104.8827 O   0  0  0  0  0  0  0  0  0  0  0  0
   45.8837  -29.5094 -101.9535 C   0  0  0  0  0  0  0  0  0  0  0  0
   46.0042  -30.6858 -100.9950 C   0  0  0  0  0  0  0  0  0  0  0  0
   46.9677  -30.2952  -99.4843 S   0  0  2  0  0  0  0  0  0  0  0  0
   46.3529  -28.6549  -98.9832 C   0  0  0  0  0  0  0  0  0  0  0  0
   48.4531  -29.7880 -100.3475 C   0  0  0  0  0  0  0  0  0  0  0  0
   49.1487  -30.9120 -101.0682 C   0  0  1  0  0  0  0  0  0  0  0  0
   48.5534  -31.0362 -102.3709 O   0  0  0  0  0  0  0  0  0  0  0  0
   50.5063  -30.3727 -101.2772 C   0  0  1  0  0  0  0  0  0  0  0  0
   51.3782  -30.8619 -100.2594 O   0  0  0  0  0  0  0  0  0  0  0  0
   50.8865  -30.9593 -102.6014 C   0  0  1  0  0  0  0  0  0  0  0  0
   51.4792  -32.2622 -102.4215 O   0  0  0  0  0  0  0  0  0  0  0  0
   49.5617  -31.0883 -103.4114 C   0  0  2  0  0  0  0  0  0  0  0  0
   45.3471  -32.1493 -103.5537 O   0  0  0  0  0  0  0  0  0  0  0  0
   48.1046  -29.4617 -108.2518 N   0  0  0  0  0  0  0  0  0  0  0  0
   48.3435  -30.7320 -107.8426 C   0  0  0  0  0  0  0  0  0  0  0  0
   48.6689  -31.0166 -106.5643 N   0  0  0  0  0  0  0  0  0  0  0  0
   48.8543  -30.0325 -105.6695 C   0  0  0  0  0  0  0  0  0  0  0  0
   48.6508  -28.6619 -106.0725 C   0  0  0  0  0  0  0  0  0  0  0  0
   48.2535  -28.4097 -107.4193 C   0  0  0  0  0  0  0  0  0  0  0  0
   48.0323  -27.1237 -107.8686 N   0  0  0  0  0  0  0  0  0  0  0  0
   48.9030  -27.8917 -105.0075 N   0  0  0  0  0  0  0  0  0  0  0  0
   49.2450  -28.6507 -104.0093 C   0  0  0  0  0  0  0  0  0  0  0  0
   49.2260  -29.9819 -104.3545 N   0  0  0  0  0  0  0  0  0  0  0  0
  2  1  1  1  0  0  0
  2  3  1  0  0  0  0
  2  5  1  0  0  0  0
  3  4  1  0  0  0  0
  3 17  1  0  0  0  0
  5  6  1  0  0  0  0
  7  6  1  6  0  0  0
  7  8  1  0  0  0  0
  7  9  1  0  0  0  0
 10  9  1  1  0  0  0
 10 11  1  0  0  0  0
 10 12  1  0  0  0  0
 11 16  1  0  0  0  0
 12 13  1  1  0  0  0
 12 14  1  0  0  0  0
 14 15  1  1  0  0  0
 14 16  1  0  0  0  0
 16 27  1  6  0  0  0
 18 19  2  0  0  0  0
 18 23  1  0  0  0  0
 19 20  1  0  0  0  0
 20 21  2  0  0  0  0
 21 22  1  0  0  0  0
 21 27  1  0  0  0  0
 22 23  2  0  0  0  0
 22 25  1  0  0  0  0
 23 24  1  0  0  0  0
 25 26  2  0  0  0  0
 26 27  1  0  0  0  0
M  END
>  <CHROM.1>
144.30444183,58.06591554,-173.82962260,43.67702742,-67.37553648,86.39981711
-116.44439453,47.98627946,-30.13661070,-103.29133847,1.64759875,-0.09681232
1.73600204

>  <Name>
ligand

>  <RI>
0

>  <Rbt.Current_Directory>
/home/itssahil/PROJECTS/Mol_Feturizer/New_Systems/rnas/4L81

>  <Rbt.Executable>
rbdock ($Id: //depot/dev/client3/rdock/2013.1/src/exe/rbdock.cxx#4 $)

>  <Rbt.Library>
libRbt.so (2013.1, Build901 2013/11/27)

>  <Rbt.Parameter_File>
/export/apps/rDock/src/rDock_2013.1_src/data/scripts/dock_solv.prm

>  <Rbt.Receptor>
prm/pocket_docking_8.prm

>  <SCORE>
-14.9756

>  <SCORE.INTER>
-12.6663

>  <SCORE.INTER.CONST>
1

>  <SCORE.INTER.POLAR>
0

>  <SCORE.INTER.ROT>
7

>  <SCORE.INTER.SOLV>
13.2264

>  <SCORE.INTER.VDW>
-21.1197

>  <SCORE.INTER.norm>
-0.469124

>  <SCORE.INTRA>
-2.31896

>  <SCORE.INTRA.DIHEDRAL>
-2.7848

>  <SCORE.INTRA.DIHEDRAL.0>
8.34559

>  <SCORE.INTRA.POLAR>
0

>  <SCORE.INTRA.POLAR.0>
0

>  <SCORE.INTRA.REPUL>
0

>  <SCORE.INTRA.REPUL.0>
0

>  <SCORE.INTRA.SOLV>
-0.358963

>  <SCORE.INTRA.SOLV.lig_0>
-48.829

>  <SCORE.INTRA.VDW>
-0.747073

>  <SCORE.INTRA.VDW.0>
-1.77092

>  <SCORE.INTRA.norm>
-0.0858872

>  <SCORE.RESTR>
0.00972447

>  <SCORE.RESTR.CAVITY>
0.00972447

>  <SCORE.RESTR.norm>
0.000360166

>  <SCORE.SYSTEM>
0

>  <SCORE.SYSTEM.CONST>
0

>  <SCORE.SYSTEM.DIHEDRAL>
0

>  <SCORE.SYSTEM.SOLV>
0

>  <SCORE.SYSTEM.norm>
0

>  <SCORE.heavy>
27

>  <SCORE.norm>
-0.554651

>  <RMSD>
4.845

$$$$
ligand
 OpenBabel11021811503D
libRbt.so/2013.1/901 2013/11/27
 27 29  0  0  0  0  0  0  0  0999 V2000
   44.0256  -26.5242 -105.4743 N   0  0  0  0  0  0  0  0  0  0  0  0
   44.9090  -26.4297 -104.3067 C   0  0  2  0  0  0  0  0  0  0  0  0
   46.0983  -25.5548 -104.6425 C   0  0  0  0  0  0  0  0  0  0  0  0
   46.3857  -25.3294 -105.8084 O   0  0  0  0  0  0  0  0  0  0  0  0
   45.4165  -27.8128 -103.8765 C   0  0  0  0  0  0  0  0  0  0  0  0
   44.2711  -28.6744 -103.3641 C   0  0  0  0  0  0  0  0  0  0  0  0
   44.7948  -30.3635 -102.8783 S   0  0  2  0  0  0  0  0  0  0  0  0
   43.3333  -31.0509 -102.0352 C   0  0  0  0  0  0  0  0  0  0  0  0
   45.7344  -29.8516 -101.4417 C   0  0  0  0  0  0  0  0  0  0  0  0
   47.0668  -30.5407 -101.3122 C   0  0  1  0  0  0  0  0  0  0  0  0
   47.8362  -30.2383 -102.4884 O   0  0  0  0  0  0  0  0  0  0  0  0
   47.7018  -29.8123 -100.1969 C   0  0  1  0  0  0  0  0  0  0  0  0
   47.5235  -30.5427  -98.9844 O   0  0  0  0  0  0  0  0  0  0  0  0
   49.1469  -29.8176 -100.5890 C   0  0  1  0  0  0  0  0  0  0  0  0
   49.7914  -31.0179 -100.1145 O   0  0  0  0  0  0  0  0  0  0  0  0
   49.1704  -29.7854 -102.1468 C   0  0  2  0  0  0  0  0  0  0  0  0
   46.7572  -25.0424 -103.7546 O   0  0  0  0  0  0  0  0  0  0  0  0
   49.0088  -26.7659 -106.5119 N   0  0  0  0  0  0  0  0  0  0  0  0
   48.7954  -28.1016 -106.4212 C   0  0  0  0  0  0  0  0  0  0  0  0
   48.8251  -28.7464 -105.2361 N   0  0  0  0  0  0  0  0  0  0  0  0
   49.1571  -28.0944 -104.1100 C   0  0  0  0  0  0  0  0  0  0  0  0
   49.4327  -26.6790 -104.1666 C   0  0  0  0  0  0  0  0  0  0  0  0
   49.3359  -26.0260 -105.4314 C   0  0  0  0  0  0  0  0  0  0  0  0
   49.5767  -24.6728 -105.5555 N   0  0  0  0  0  0  0  0  0  0  0  0
   49.7385  -26.2825 -102.9256 N   0  0  0  0  0  0  0  0  0  0  0  0
   49.6853  -27.3086 -102.1295 C   0  0  0  0  0  0  0  0  0  0  0  0
   49.3244  -28.4534 -102.8011 N   0  0  0  0  0  0  0  0  0  0  0  0
  2  1  1  6  0  0  0
  2  3  1  0  0  0  0
  2  5  1  0  0  0  0
  3  4  1  0  0  0  0
  3 17  1  0  0  0  0
  5  6  1  0  0  0  0
  7  6  1  6  0  0  0
  7  8  1  0  0  0  0
  7  9  1  0  0  0  0
 10  9  1  6  0  0  0
 10 11  1  0  0  0  0
 10 12  1  0  0  0  0
 11 16  1  0  0  0  0
 12 13  1  1  0  0  0
 12 14  1  0  0  0  0
 14 15  1  6  0  0  0
 14 16  1  0  0  0  0
 16 27  1  1  0  0  0
 18 19  2  0  0  0  0
 18 23  1  0  0  0  0
 19 20  1  0  0  0  0
 20 21  2  0  0  0  0
 21 22  1  0  0  0  0
 21 27  1  0  0  0  0
 22 23  2  0  0  0  0
 22 25  1  0  0  0  0
 23 24  1  0  0  0  0
 25 26  2  0  0  0  0
 26 27  1  0  0  0  0
M  END
>  <CHROM.1>
-18.26204713,-66.20483248,178.24388469,169.94128339,-136.17269594,59.75704238
-54.42238600,47.34029006,-28.27053160,-103.21937398,1.42268153,-0.15774716
-0.78473531

>  <Name>
ligand

>  <RI>
0

>  <Rbt.Current_Directory>
/home/itssahil/PROJECTS/Mol_Feturizer/New_Systems/rnas/4L81

>  <Rbt.Executable>
rbdock ($Id: //depot/dev/client3/rdock/2013.1/src/exe/rbdock.cxx#4 $)

>  <Rbt.Library>
libRbt.so (2013.1, Build901 2013/11/27)

>  <Rbt.Parameter_File>
/export/apps/rDock/src/rDock_2013.1_src/data/scripts/dock_solv.prm

>  <Rbt.Receptor>
prm/pocket_docking_4.prm

>  <SCORE>
-14.6645

>  <SCORE.INTER>
-11.6047

>  <SCORE.INTER.CONST>
1

>  <SCORE.INTER.POLAR>
0

>  <SCORE.INTER.ROT>
7

>  <SCORE.INTER.SOLV>
14.4833

>  <SCORE.INTER.VDW>
-20.8309

>  <SCORE.INTER.norm>
-0.429805

>  <SCORE.INTRA>
-3.05977

>  <SCORE.INTRA.DIHEDRAL>
-0.643639

>  <SCORE.INTRA.DIHEDRAL.0>
8.34559

>  <SCORE.INTRA.POLAR>
0

>  <SCORE.INTRA.POLAR.0>
0

>  <SCORE.INTRA.REPUL>
0

>  <SCORE.INTRA.REPUL.0>
0

>  <SCORE.INTRA.SOLV>
0.924933

>  <SCORE.INTRA.SOLV.lig_0>
-48.829

>  <SCORE.INTRA.VDW>
-3.20041

>  <SCORE.INTRA.VDW.0>
-1.77092

>  <SCORE.INTRA.norm>
-0.113325

>  <SCORE.RESTR>
0

>  <SCORE.RESTR.CAVITY>
0

>  <SCORE.RESTR.norm>
0

>  <SCORE.SYSTEM>
0

>  <SCORE.SYSTEM.CONST>
0

>  <SCORE.SYSTEM.DIHEDRAL>
0

>  <SCORE.SYSTEM.SOLV>
0

>  <SCORE.SYSTEM.norm>
0

>  <SCORE.heavy>
27

>  <SCORE.norm>
-0.54313

>  <RMSD>
4.860

$$$$
ligand
 OpenBabel11021811503D
libRbt.so/2013.1/901 2013/11/27
 27 29  0  0  0  0  0  0  0  0999 V2000
   48.0285  -25.5085 -109.2691 N   0  0  0  0  0  0  0  0  0  0  0  0
   48.4873  -26.4802 -108.2701 C   0  0  2  0  0  0  0  0  0  0  0  0
   47.2915  -27.1819 -107.6615 C   0  0  0  0  0  0  0  0  0  0  0  0
   46.2916  -26.5460 -107.3641 O   0  0  0  0  0  0  0  0  0  0  0  0
   49.2840  -25.7968 -107.1505 C   0  0  0  0  0  0  0  0  0  0  0  0
   49.9284  -26.8297 -106.2367 C   0  0  0  0  0  0  0  0  0  0  0  0
   48.7669  -27.5332 -105.0041 S   0  0  2  0  0  0  0  0  0  0  0  0
   48.6484  -26.2412 -103.7250 C   0  0  0  0  0  0  0  0  0  0  0  0
   49.9701  -28.6009 -104.2159 C   0  0  0  0  0  0  0  0  0  0  0  0
   49.4417  -29.3156 -103.0007 C   0  0  1  0  0  0  0  0  0  0  0  0
   48.3433  -30.1438 -103.4186 O   0  0  0  0  0  0  0  0  0  0  0  0
   50.5478  -30.2292 -102.6548 C   0  0  1  0  0  0  0  0  0  0  0  0
   51.3421  -29.6500 -101.6209 O   0  0  0  0  0  0  0  0  0  0  0  0
   49.8230  -31.4300 -102.1307 C   0  0  1  0  0  0  0  0  0  0  0  0
   49.5619  -31.2823 -100.7196 O   0  0  0  0  0  0  0  0  0  0  0  0
   48.4772  -31.4961 -102.9133 C   0  0  2  0  0  0  0  0  0  0  0  0
   47.3039  -28.3889 -107.4945 O   0  0  0  0  0  0  0  0  0  0  0  0
   50.8928  -34.8294 -106.2677 N   0  0  0  0  0  0  0  0  0  0  0  0
   51.4411  -34.1706 -105.2174 C   0  0  0  0  0  0  0  0  0  0  0  0
   50.7024  -33.3792 -104.4119 N   0  0  0  0  0  0  0  0  0  0  0  0
   49.4071  -33.1476 -104.6803 C   0  0  0  0  0  0  0  0  0  0  0  0
   48.7920  -33.7962 -105.8132 C   0  0  0  0  0  0  0  0  0  0  0  0
   49.5960  -34.6682 -106.6059 C   0  0  0  0  0  0  0  0  0  0  0  0
   49.0692  -35.3281 -107.6976 N   0  0  0  0  0  0  0  0  0  0  0  0
   47.5159  -33.3956 -105.8574 N   0  0  0  0  0  0  0  0  0  0  0  0
   47.2989  -32.5688 -104.8782 C   0  0  0  0  0  0  0  0  0  0  0  0
   48.4262  -32.3821 -104.1128 N   0  0  0  0  0  0  0  0  0  0  0  0
  2  1  1  6  0  0  0
  2  3  1  0  0  0  0
  2  5  1  0  0  0  0
  3  4  1  0  0  0  0
  3 17  1  0  0  0  0
  5  6  1  0  0  0  0
  7  6  1  6  0  0  0
  7  8  1  0  0  0  0
  7  9  1  0  0  0  0
 10  9  1  6  0  0  0
 10 11  1  0  0  0  0
 10 12  1  0  0  0  0
 11 16  1  0  0  0  0
 12 13  1  1  0  0  0
 12 14  1  0  0  0  0
 14 15  1  1  0  0  0
 14 16  1  0  0  0  0
 16 27  1  6  0  0  0
 18 19  2  0  0  0  0
 18 23  1  0  0  0  0
 19 20  1  0  0  0  0
 20 21  2  0  0  0  0
 21 22  1  0  0  0  0
 21 27  1  0  0  0  0
 22 23  2  0  0  0  0
 22 25  1  0  0  0  0
 23 24  1  0  0  0  0
 25 26  2  0  0  0  0
 26 27  1  0  0  0  0
M  END
>  <CHROM.1>
-42.29965951,-171.54313492,-79.93685789,-78.17825911,174.66234733,61.08836840
111.46075452,49.03402592,-30.14873999,-105.08674989,2.24036304,-1.25446273
0.34481995

>  <Name>
ligand

>  <RI>
0

>  <Rbt.Current_Directory>
/home/itssahil/PROJECTS/Mol_Feturizer/New_Systems/rnas/4L81

>  <Rbt.Executable>
rbdock ($Id: //depot/dev/client3/rdock/2013.1/src/exe/rbdock.cxx#4 $)

>  <Rbt.Library>
libRbt.so (2013.1, Build901 2013/11/27)

>  <Rbt.Parameter_File>
/export/apps/rDock/src/rDock_2013.1_src/data/scripts/dock_solv.prm

>  <Rbt.Receptor>
prm/pocket_docking_7.prm

>  <SCORE>
-10.4157

>  <SCORE.INTER>
-7.05032

>  <SCORE.INTER.CONST>
1

>  <SCORE.INTER.POLAR>
0

>  <SCORE.INTER.ROT>
7

>  <SCORE.INTER.SOLV>
7.09

>  <SCORE.INTER.VDW>
-15.3302

>  <SCORE.INTER.norm>
-0.261123

>  <SCORE.INTRA>
-3.36538

>  <SCORE.INTRA.DIHEDRAL>
-3.14946

>  <SCORE.INTRA.DIHEDRAL.0>
8.34559

>  <SCORE.INTRA.POLAR>
0

>  <SCORE.INTRA.POLAR.0>
0

>  <SCORE.INTRA.REPUL>
0

>  <SCORE.INTRA.REPUL.0>
0

>  <SCORE.INTRA.SOLV>
-1.17395

>  <SCORE.INTRA.SOLV.lig_0>
-48.829

>  <SCORE.INTRA.VDW>
-1.20368

>  <SCORE.INTRA.VDW.0>
-1.77092

>  <SCORE.INTRA.norm>
-0.124644

>  <SCORE.RESTR>
0

>  <SCORE.RESTR.CAVITY>
0

>  <SCORE.RESTR.norm>
0

>  <SCORE.SYSTEM>
0

>  <SCORE.SYSTEM.CONST>
0

>  <SCORE.SYSTEM.DIHEDRAL>
0

>  <SCORE.SYSTEM.SOLV>
0

>  <SCORE.SYSTEM.norm>
0

>  <SCORE.heavy>
27

>  <SCORE.norm>
-0.385767

>  <RMSD>
4.864

$$$$
ligand
 OpenBabel11021811503D
libRbt.so/2013.1/901 2013/11/27
 27 29  0  0  0  0  0  0  0  0999 V2000
   45.2427  -30.6324 -107.2367 N   0  0  0  0  0  0  0  0  0  0  0  0
   44.8047  -29.9989 -105.9879 C   0  0  2  0  0  0  0  0  0  0  0  0
   45.1382  -28.5225 -106.0263 C   0  0  0  0  0  0  0  0  0  0  0  0
   46.1451  -28.1347 -106.5995 O   0  0  0  0  0  0  0  0  0  0  0  0
   45.4916  -30.6310 -104.7697 C   0  0  0  0  0  0  0  0  0  0  0  0
   44.8453  -30.1550 -103.4764 C   0  0  0  0  0  0  0  0  0  0  0  0
   45.6932  -30.7719 -101.9717 S   0  0  2  0  0  0  0  0  0  0  0  0
   44.9788  -29.7742 -100.6249 C   0  0  0  0  0  0  0  0  0  0  0  0
   47.2078  -29.8515 -102.2317 C   0  0  0  0  0  0  0  0  0  0  0  0
   48.3236  -30.2455 -101.3008 C   0  0  1  0  0  0  0  0  0  0  0  0
   48.6495  -31.6215 -101.5602 O   0  0  0  0  0  0  0  0  0  0  0  0
   49.4591  -29.4447 -101.7977 C   0  0  1  0  0  0  0  0  0  0  0  0
   49.5954  -28.2647 -101.0074 O   0  0  0  0  0  0  0  0  0  0  0  0
   50.6241  -30.3553 -101.5620 C   0  0  1  0  0  0  0  0  0  0  0  0
   51.1390  -30.1761 -100.2263 O   0  0  0  0  0  0  0  0  0  0  0  0
   50.0778  -31.8051 -101.7280 C   0  0  2  0  0  0  0  0  0  0  0  0
   44.3898  -27.7076 -105.5156 O   0  0  0  0  0  0  0  0  0  0  0  0
   47.9738  -33.6332 -106.2479 N   0  0  0  0  0  0  0  0  0  0  0  0
   47.3203  -33.0945 -105.1893 C   0  0  0  0  0  0  0  0  0  0  0  0
   47.9817  -32.6262 -104.1102 N   0  0  0  0  0  0  0  0  0  0  0  0
   49.3143  -32.7608 -104.0123 C   0  0  0  0  0  0  0  0  0  0  0  0
   50.0463  -33.3661 -105.0986 C   0  0  0  0  0  0  0  0  0  0  0  0
   49.3136  -33.7971 -106.2443 C   0  0  0  0  0  0  0  0  0  0  0  0
   49.9517  -34.3752 -107.3229 N   0  0  0  0  0  0  0  0  0  0  0  0
   51.3378  -33.3829 -104.7484 N   0  0  0  0  0  0  0  0  0  0  0  0
   51.4609  -32.8609 -103.5644 C   0  0  0  0  0  0  0  0  0  0  0  0
   50.2478  -32.4515 -103.0620 N   0  0  0  0  0  0  0  0  0  0  0  0
  2  1  1  6  0  0  0
  2  3  1  0  0  0  0
  2  5  1  0  0  0  0
  3  4  1  0  0  0  0
  3 17  1  0  0  0  0
  5  6  1  0  0  0  0
  7  6  1  6  0  0  0
  7  8  1  0  0  0  0
  7  9  1  0  0  0  0
 10  9  1  6  0  0  0
 10 11  1  0  0  0  0
 10 12  1  0  0  0  0
 11 16  1  0  0  0  0
 12 13  1  1  0  0  0
 12 14  1  0  0  0  0
 14 15  1  1  0  0  0
 14 16  1  0  0  0  0
 16 27  1  6  0  0  0
 18 19  2  0  0  0  0
 18 23  1  0  0  0  0
 19 20  1  0  0  0  0
 20 21  2  0  0  0  0
 21 22  1  0  0  0  0
 21 27  1  0  0  0  0
 22 23  2  0  0  0  0
 22 25  1  0  0  0  0
 23 24  1  0  0  0  0
 25 26  2  0  0  0  0
 26 27  1  0  0  0  0
M  END
>  <CHROM.1>
-33.92069447,-169.35112499,-175.72878431,167.56726847,-170.35372283,62.86346650
3.67306535,47.87985706,-31.02814484,-103.68776952,-3.12875320,-0.56320415
1.05070414

>  <Name>
ligand

>  <RI>
0

>  <Rbt.Current_Directory>
/home/itssahil/PROJECTS/Mol_Feturizer/New_Systems/rnas/4L81

>  <Rbt.Executable>
rbdock ($Id: //depot/dev/client3/rdock/2013.1/src/exe/rbdock.cxx#4 $)

>  <Rbt.Library>
libRbt.so (2013.1, Build901 2013/11/27)

>  <Rbt.Parameter_File>
/export/apps/rDock/src/rDock_2013.1_src/data/scripts/dock_solv.prm

>  <Rbt.Receptor>
prm/pocket_docking_6.prm

>  <SCORE>
-13.7084

>  <SCORE.INTER>
-9.84371

>  <SCORE.INTER.CONST>
1

>  <SCORE.INTER.POLAR>
0

>  <SCORE.INTER.ROT>
7

>  <SCORE.INTER.SOLV>
12.5196

>  <SCORE.INTER.VDW>
-19.0023

>  <SCORE.INTER.norm>
-0.364582

>  <SCORE.INTRA>
-3.99997

>  <SCORE.INTRA.DIHEDRAL>
-3.61775

>  <SCORE.INTRA.DIHEDRAL.0>
8.34559

>  <SCORE.INTRA.POLAR>
0

>  <SCORE.INTRA.POLAR.0>
0

>  <SCORE.INTRA.REPUL>
0

>  <SCORE.INTRA.REPUL.0>
0

>  <SCORE.INTRA.SOLV>
-1.15353

>  <SCORE.INTRA.SOLV.lig_0>
-48.829

>  <SCORE.INTRA.VDW>
-1.61433

>  <SCORE.INTRA.VDW.0>
-1.77092

>  <SCORE.INTRA.norm>
-0.148147

>  <SCORE.RESTR>
0.135278

>  <SCORE.RESTR.CAVITY>
0.135278

>  <SCORE.RESTR.norm>
0.0050103

>  <SCORE.SYSTEM>
0

>  <SCORE.SYSTEM.CONST>
0

>  <SCORE.SYSTEM.DIHEDRAL>
0

>  <SCORE.SYSTEM.SOLV>
0

>  <SCORE.SYSTEM.norm>
0

>  <SCORE.heavy>
27

>  <SCORE.norm>
-0.507719

>  <RMSD>
4.867

$$$$
ligand
 OpenBabel11021811503D
libRbt.so/2013.1/901 2013/11/27
 27 29  0  0  0  0  0  0  0  0999 V2000
   48.1685  -30.0379 -107.0551 N   0  0  0  0  0  0  0  0  0  0  0  0
   47.5565  -28.7604 -107.4372 C   0  0  2  0  0  0  0  0  0  0  0  0
   48.5799  -27.9038 -108.1524 C   0  0  0  0  0  0  0  0  0  0  0  0
   49.5481  -27.4691 -107.5472 O   0  0  0  0  0  0  0  0  0  0  0  0
   47.0425  -27.9973 -106.2088 C   0  0  0  0  0  0  0  0  0  0  0  0
   45.9712  -28.7988 -105.4829 C   0  0  0  0  0  0  0  0  0  0  0  0
   45.4528  -28.0445 -103.8937 S   0  0  2  0  0  0  0  0  0  0  0  0
   45.4518  -26.2551 -104.2365 C   0  0  0  0  0  0  0  0  0  0  0  0
   47.0544  -28.1792 -103.1027 C   0  0  0  0  0  0  0  0  0  0  0  0
   47.0592  -29.0754 -101.8929 C   0  0  1  0  0  0  0  0  0  0  0  0
   46.5311  -30.3528 -102.2880 O   0  0  0  0  0  0  0  0  0  0  0  0
   48.4997  -29.2762 -101.6434 C   0  0  1  0  0  0  0  0  0  0  0  0
   48.9402  -28.3755 -100.6284 O   0  0  0  0  0  0  0  0  0  0  0  0
   48.5461  -30.6833 -101.1335 C   0  0  1  0  0  0  0  0  0  0  0  0
   48.3401  -30.7068  -99.7058 O   0  0  0  0  0  0  0  0  0  0  0  0
   47.3852  -31.4385 -101.8476 C   0  0  2  0  0  0  0  0  0  0  0  0
   48.4641  -27.6689 -109.3425 O   0  0  0  0  0  0  0  0  0  0  0  0
   50.9495  -34.0494 -104.7932 N   0  0  0  0  0  0  0  0  0  0  0  0
   51.1568  -33.4138 -103.6139 C   0  0  0  0  0  0  0  0  0  0  0  0
   50.1492  -32.8196 -102.9410 N   0  0  0  0  0  0  0  0  0  0  0  0
   48.9147  -32.7628 -103.4666 C   0  0  0  0  0  0  0  0  0  0  0  0
   48.6579  -33.3909 -104.7401 C   0  0  0  0  0  0  0  0  0  0  0  0
   49.7394  -34.0557 -105.3912 C   0  0  0  0  0  0  0  0  0  0  0  0
   49.5614  -34.6855 -106.6063 N   0  0  0  0  0  0  0  0  0  0  0  0
   47.3685  -33.1853 -105.0332 N   0  0  0  0  0  0  0  0  0  0  0  0
   46.8236  -32.4933 -104.0774 C   0  0  0  0  0  0  0  0  0  0  0  0
   47.7259  -32.2090 -103.0791 N   0  0  0  0  0  0  0  0  0  0  0  0
  2  1  1  1  0  0  0
  2  3  1  0  0  0  0
  2  5  1  0  0  0  0
  3  4  1  0  0  0  0
  3 17  1  0  0  0  0
  5  6  1  0  0  0  0
  7  6  1  6  0  0  0
  7  8  1  0  0  0  0
  7  9  1  0  0  0  0
 10  9  1  6  0  0  0
 10 11  1  0  0  0  0
 10 12  1  0  0  0  0
 11 16  1  0  0  0  0
 12 13  1  1  0  0  0
 12 14  1  0  0  0  0
 14 15  1  1  0  0  0
 14 16  1  0  0  0  0
 16 27  1  6  0  0  0
 18 19  2  0  0  0  0
 18 23  1  0  0  0  0
 19 20  1  0  0  0  0
 20 21  2  0  0  0  0
 21 22  1  0  0  0  0
 21 27  1  0  0  0  0
 22 23  2  0  0  0  0
 22 25  1  0  0  0  0
 23 24  1  0  0  0  0
 25 26  2  0  0  0  0
 26 27  1  0  0  0  0
M  END
>  <CHROM.1>
-67.05705167,-61.25719080,173.04546247,38.06041093,-116.80168299,54.45514617
138.80801677,47.98753208,-30.30750508,-104.24423177,-2.40857601,-1.09100944
1.89327675

>  <Name>
ligand

>  <RI>
0

>  <Rbt.Current_Directory>
/home/itssahil/PROJECTS/Mol_Feturizer/New_Systems/rnas/4L81

>  <Rbt.Executable>
rbdock ($Id: //depot/dev/client3/rdock/2013.1/src/exe/rbdock.cxx#4 $)

>  <Rbt.Library>
libRbt.so (2013.1, Build901 2013/11/27)

>  <Rbt.Parameter_File>
/export/apps/rDock/src/rDock_2013.1_src/data/scripts/dock_solv.prm

>  <Rbt.Receptor>
prm/pocket_docking_6.prm

>  <SCORE>
-10.2715

>  <SCORE.INTER>
-10.2101

>  <SCORE.INTER.CONST>
1

>  <SCORE.INTER.POLAR>
0

>  <SCORE.INTER.ROT>
7

>  <SCORE.INTER.SOLV>
9.36961

>  <SCORE.INTER.VDW>
-18.1966

>  <SCORE.INTER.norm>
-0.378152

>  <SCORE.INTRA>
-0.074814

>  <SCORE.INTRA.DIHEDRAL>
-0.300502

>  <SCORE.INTRA.DIHEDRAL.0>
8.34559

>  <SCORE.INTRA.POLAR>
0

>  <SCORE.INTRA.POLAR.0>
0

>  <SCORE.INTRA.REPUL>
0

>  <SCORE.INTRA.REPUL.0>
0

>  <SCORE.INTRA.SOLV>
-0.370548

>  <SCORE.INTRA.SOLV.lig_0>
-48.829

>  <SCORE.INTRA.VDW>
0.260711

>  <SCORE.INTRA.VDW.0>
-1.77092

>  <SCORE.INTRA.norm>
-0.00277089

>  <SCORE.RESTR>
0.0134423

>  <SCORE.RESTR.CAVITY>
0.0134423

>  <SCORE.RESTR.norm>
0.000497863

>  <SCORE.SYSTEM>
0

>  <SCORE.SYSTEM.CONST>
0

>  <SCORE.SYSTEM.DIHEDRAL>
0

>  <SCORE.SYSTEM.SOLV>
0

>  <SCORE.SYSTEM.norm>
0

>  <SCORE.heavy>
27

>  <SCORE.norm>
-0.380425

>  <RMSD>
4.877

$$$$
ligand
 OpenBabel11021811503D
libRbt.so/2013.1/901 2013/11/27
 27 29  0  0  0  0  0  0  0  0999 V2000
   43.5461  -26.4520 -105.2959 N   0  0  0  0  0  0  0  0  0  0  0  0
   44.3884  -27.3963 -104.5533 C   0  0  2  0  0  0  0  0  0  0  0  0
   45.8469  -27.0580 -104.7792 C   0  0  0  0  0  0  0  0  0  0  0  0
   46.6140  -27.9045 -105.2125 O   0  0  0  0  0  0  0  0  0  0  0  0
   44.1389  -28.8419 -105.0043 C   0  0  0  0  0  0  0  0  0  0  0  0
   44.4178  -29.8184 -103.8706 C   0  0  0  0  0  0  0  0  0  0  0  0
   46.1679  -30.3614 -103.7946 S   0  0  2  0  0  0  0  0  0  0  0  0
   46.3151  -31.5609 -105.1580 C   0  0  0  0  0  0  0  0  0  0  0  0
   45.9398  -31.5057 -102.4355 C   0  0  0  0  0  0  0  0  0  0  0  0
   46.2291  -30.9073 -101.0845 C   0  0  1  0  0  0  0  0  0  0  0  0
   47.5316  -30.3014 -101.1401 O   0  0  0  0  0  0  0  0  0  0  0  0
   45.2552  -29.8015 -101.0040 C   0  0  1  0  0  0  0  0  0  0  0  0
   44.1129  -30.2223 -100.2601 O   0  0  0  0  0  0  0  0  0  0  0  0
   46.0105  -28.7613 -100.2363 C   0  0  1  0  0  0  0  0  0  0  0  0
   45.8367  -28.9595  -98.8179 O   0  0  0  0  0  0  0  0  0  0  0  0
   47.5098  -28.9495 -100.6166 C   0  0  2  0  0  0  0  0  0  0  0  0
   46.2596  -25.9321 -104.5628 O   0  0  0  0  0  0  0  0  0  0  0  0
   50.6260  -28.3400 -104.8729 N   0  0  0  0  0  0  0  0  0  0  0  0
   50.4778  -29.4493 -104.1078 C   0  0  0  0  0  0  0  0  0  0  0  0
   49.6151  -29.4863 -103.0707 N   0  0  0  0  0  0  0  0  0  0  0  0
   48.9349  -28.3872 -102.7064 C   0  0  0  0  0  0  0  0  0  0  0  0
   49.0933  -27.1717 -103.4680 C   0  0  0  0  0  0  0  0  0  0  0  0
   49.9738  -27.1925 -104.5904 C   0  0  0  0  0  0  0  0  0  0  0  0
   50.1645  -26.0684 -105.3680 N   0  0  0  0  0  0  0  0  0  0  0  0
   48.3192  -26.2406 -102.8983 N   0  0  0  0  0  0  0  0  0  0  0  0
   47.7186  -26.7622 -101.8704 C   0  0  0  0  0  0  0  0  0  0  0  0
   48.0529  -28.0862 -101.7056 N   0  0  0  0  0  0  0  0  0  0  0  0
  2  1  1  6  0  0  0
  2  3  1  0  0  0  0
  2  5  1  0  0  0  0
  3  4  1  0  0  0  0
  3 17  1  0  0  0  0
  5  6  1  0  0  0  0
  7  6  1  6  0  0  0
  7  8  1  0  0  0  0
  7  9  1  0  0  0  0
 10  9  1  6  0  0  0
 10 11  1  0  0  0  0
 10 12  1  0  0  0  0
 11 16  1  0  0  0  0
 12 13  1  1  0  0  0
 12 14  1  0  0  0  0
 14 15  1  1  0  0  0
 14 16  1  0  0  0  0
 16 27  1  6  0  0  0
 18 19  2  0  0  0  0
 18 23  1  0  0  0  0
 19 20  1  0  0  0  0
 20 21  2  0  0  0  0
 21 22  1  0  0  0  0
 21 27  1  0  0  0  0
 22 23  2  0  0  0  0
 22 25  1  0  0  0  0
 23 24  1  0  0  0  0
 25 26  2  0  0  0  0
 26 27  1  0  0  0  0
M  END
>  <CHROM.1>
-124.29394756,-151.58915327,-88.05548582,-76.00543846,-93.96618946,-51.91197596
-27.89558523,46.90196074,-28.70239806,-103.07124373,0.81616231,-0.19669290
-1.03514966

>  <Name>
ligand

>  <RI>
0

>  <Rbt.Current_Directory>
/home/itssahil/PROJECTS/Mol_Feturizer/New_Systems/rnas/4L81

>  <Rbt.Executable>
rbdock ($Id: //depot/dev/client3/rdock/2013.1/src/exe/rbdock.cxx#4 $)

>  <Rbt.Library>
libRbt.so (2013.1, Build901 2013/11/27)

>  <Rbt.Parameter_File>
/export/apps/rDock/src/rDock_2013.1_src/data/scripts/dock_solv.prm

>  <Rbt.Receptor>
prm/pocket_docking_2.prm

>  <SCORE>
-3.49547

>  <SCORE.INTER>
-3.3186

>  <SCORE.INTER.CONST>
1

>  <SCORE.INTER.POLAR>
0

>  <SCORE.INTER.ROT>
7

>  <SCORE.INTER.SOLV>
19.4099

>  <SCORE.INTER.VDW>
-16.9491

>  <SCORE.INTER.norm>
-0.122911

>  <SCORE.INTRA>
-1.41735

>  <SCORE.INTRA.DIHEDRAL>
2.2789

>  <SCORE.INTRA.DIHEDRAL.0>
8.34559

>  <SCORE.INTRA.POLAR>
0

>  <SCORE.INTRA.POLAR.0>
0

>  <SCORE.INTRA.REPUL>
0

>  <SCORE.INTRA.REPUL.0>
0

>  <SCORE.INTRA.SOLV>
-0.683051

>  <SCORE.INTRA.SOLV.lig_0>
-48.829

>  <SCORE.INTRA.VDW>
-2.21528

>  <SCORE.INTRA.VDW.0>
-1.77092

>  <SCORE.INTRA.norm>
-0.0524946

>  <SCORE.RESTR>
1.24049

>  <SCORE.RESTR.CAVITY>
1.24049

>  <SCORE.RESTR.norm>
0.0459439

>  <SCORE.SYSTEM>
0

>  <SCORE.SYSTEM.CONST>
0

>  <SCORE.SYSTEM.DIHEDRAL>
0

>  <SCORE.SYSTEM.SOLV>
0

>  <SCORE.SYSTEM.norm>
0

>  <SCORE.heavy>
27

>  <SCORE.norm>
-0.129462

>  <RMSD>
4.879

$$$$
ligand
 OpenBabel11021811503D
libRbt.so/2013.1/901 2013/11/27
 27 29  0  0  0  0  0  0  0  0999 V2000
   48.3748  -29.1281 -105.4934 N   0  0  0  0  0  0  0  0  0  0  0  0
   48.0341  -28.3832 -106.7107 C   0  0  2  0  0  0  0  0  0  0  0  0
   47.5708  -29.3489 -107.7810 C   0  0  0  0  0  0  0  0  0  0  0  0
   47.8042  -29.1197 -108.9581 O   0  0  0  0  0  0  0  0  0  0  0  0
   49.2408  -27.5969 -107.2409 C   0  0  0  0  0  0  0  0  0  0  0  0
   48.7885  -26.4358 -108.1150 C   0  0  0  0  0  0  0  0  0  0  0  0
   47.8462  -25.1593 -107.1953 S   0  0  2  0  0  0  0  0  0  0  0  0
   48.1133  -23.6365 -108.1595 C   0  0  0  0  0  0  0  0  0  0  0  0
   49.0824  -24.9082 -105.9234 C   0  0  0  0  0  0  0  0  0  0  0  0
   48.5859  -24.1147 -104.7442 C   0  0  1  0  0  0  0  0  0  0  0  0
   47.1889  -24.4075 -104.5720 O   0  0  0  0  0  0  0  0  0  0  0  0
   49.2892  -24.7444 -103.6099 C   0  0  1  0  0  0  0  0  0  0  0  0
   50.4467  -23.9787 -103.2792 O   0  0  0  0  0  0  0  0  0  0  0  0
   48.2793  -24.6458 -102.5088 C   0  0  1  0  0  0  0  0  0  0  0  0
   48.4027  -23.3807 -101.8264 O   0  0  0  0  0  0  0  0  0  0  0  0
   46.8836  -24.7425 -103.1948 C   0  0  2  0  0  0  0  0  0  0  0  0
   46.9919  -30.3767 -107.4755 O   0  0  0  0  0  0  0  0  0  0  0  0
   46.7557  -29.8344 -101.6933 N   0  0  0  0  0  0  0  0  0  0  0  0
   47.6827  -28.8993 -101.3704 C   0  0  0  0  0  0  0  0  0  0  0  0
   47.5756  -27.6202 -101.7866 N   0  0  0  0  0  0  0  0  0  0  0  0
   46.5851  -27.2501 -102.6146 C   0  0  0  0  0  0  0  0  0  0  0  0
   45.5986  -28.2233 -103.0174 C   0  0  0  0  0  0  0  0  0  0  0  0
   45.7186  -29.5511 -102.5095 C   0  0  0  0  0  0  0  0  0  0  0  0
   44.8046  -30.5287 -102.8464 N   0  0  0  0  0  0  0  0  0  0  0  0
   44.7392  -27.6044 -103.8355 N   0  0  0  0  0  0  0  0  0  0  0  0
   45.1072  -26.3657 -103.9755 C   0  0  0  0  0  0  0  0  0  0  0  0
   46.2353  -26.0856 -103.2403 N   0  0  0  0  0  0  0  0  0  0  0  0
  2  1  1  1  0  0  0
  2  3  1  0  0  0  0
  2  5  1  0  0  0  0
  3  4  1  0  0  0  0
  3 17  1  0  0  0  0
  5  6  1  0  0  0  0
  7  6  1  6  0  0  0
  7  8  1  0  0  0  0
  7  9  1  0  0  0  0
 10  9  1  6  0  0  0
 10 11  1  0  0  0  0
 10 12  1  0  0  0  0
 11 16  1  0  0  0  0
 12 13  1  1  0  0  0
 12 14  1  0  0  0  0
 14 15  1  6  0  0  0
 14 16  1  0  0  0  0
 16 27  1  6  0  0  0
 18 19  2  0  0  0  0
 18 23  1  0  0  0  0
 19 20  1  0  0  0  0
 20 21  2  0  0  0  0
 21 22  1  0  0  0  0
 21 27  1  0  0  0  0
 22 23  2  0  0  0  0
 22 25  1  0  0  0  0
 23 24  1  0  0  0  0
 25 26  2  0  0  0  0
 26 27  1  0  0  0  0
M  END
>  <CHROM.1>
-146.88461731,-157.33422766,65.10556216,154.20762194,-167.46095678,32.15992194
123.16481884,47.53251760,-26.76384893,-104.76493532,2.81664241,1.14183249
1.03004680

>  <Name>
ligand

>  <RI>
0

>  <Rbt.Current_Directory>
/home/itssahil/PROJECTS/Mol_Feturizer/New_Systems/rnas/4L81

>  <Rbt.Executable>
rbdock ($Id: //depot/dev/client3/rdock/2013.1/src/exe/rbdock.cxx#4 $)

>  <Rbt.Library>
libRbt.so (2013.1, Build901 2013/11/27)

>  <Rbt.Parameter_File>
/export/apps/rDock/src/rDock_2013.1_src/data/scripts/dock_solv.prm

>  <Rbt.Receptor>
prm/pocket_docking_5.prm

>  <SCORE>
-5.5647

>  <SCORE.INTER>
-6.12992

>  <SCORE.INTER.CONST>
1

>  <SCORE.INTER.POLAR>
0

>  <SCORE.INTER.ROT>
7

>  <SCORE.INTER.SOLV>
8.86952

>  <SCORE.INTER.VDW>
-15.3098

>  <SCORE.INTER.norm>
-0.227034

>  <SCORE.INTRA>
0.551613

>  <SCORE.INTRA.DIHEDRAL>
0.900353

>  <SCORE.INTRA.DIHEDRAL.0>
8.34559

>  <SCORE.INTRA.POLAR>
0

>  <SCORE.INTRA.POLAR.0>
0

>  <SCORE.INTRA.REPUL>
0

>  <SCORE.INTRA.REPUL.0>
0

>  <SCORE.INTRA.SOLV>
-0.457133

>  <SCORE.INTRA.SOLV.lig_0>
-48.829

>  <SCORE.INTRA.VDW>
0.330003

>  <SCORE.INTRA.VDW.0>
-1.77092

>  <SCORE.INTRA.norm>
0.0204301

>  <SCORE.RESTR>
0.013606

>  <SCORE.RESTR.CAVITY>
0.013606

>  <SCORE.RESTR.norm>
0.000503925

>  <SCORE.SYSTEM>
0

>  <SCORE.SYSTEM.CONST>
0

>  <SCORE.SYSTEM.DIHEDRAL>
0

>  <SCORE.SYSTEM.SOLV>
0

>  <SCORE.SYSTEM.norm>
0

>  <SCORE.heavy>
27

>  <SCORE.norm>
-0.2061

>  <RMSD>
4.900

$$$$
ligand
 OpenBabel11021811503D
libRbt.so/2013.1/901 2013/11/27
 27 29  0  0  0  0  0  0  0  0999 V2000
   45.3594  -30.8868 -103.7907 N   0  0  0  0  0  0  0  0  0  0  0  0
   44.7400  -29.8211 -102.9949 C   0  0  2  0  0  0  0  0  0  0  0  0
   44.5526  -28.5905 -103.8571 C   0  0  0  0  0  0  0  0  0  0  0  0
   43.6817  -28.5672 -104.7137 O   0  0  0  0  0  0  0  0  0  0  0  0
   45.6080  -29.4510 -101.7845 C   0  0  0  0  0  0  0  0  0  0  0  0
   45.9071  -30.6795 -100.9370 C   0  0  0  0  0  0  0  0  0  0  0  0
   46.8359  -30.2944  -99.4033 S   0  0  2  0  0  0  0  0  0  0  0  0
   46.1880  -28.6695  -98.8939 C   0  0  0  0  0  0  0  0  0  0  0  0
   48.3300  -29.7553 -100.2313 C   0  0  0  0  0  0  0  0  0  0  0  0
   48.8522  -30.7416 -101.2419 C   0  0  1  0  0  0  0  0  0  0  0  0
   48.3096  -30.3876 -102.5253 O   0  0  0  0  0  0  0  0  0  0  0  0
   50.2921  -30.4226 -101.2928 C   0  0  1  0  0  0  0  0  0  0  0  0
   51.0130  -31.3264 -100.4567 O   0  0  0  0  0  0  0  0  0  0  0  0
   50.6285  -30.6766 -102.7296 C   0  0  1  0  0  0  0  0  0  0  0  0
   50.9734  -32.0636 -102.9267 O   0  0  0  0  0  0  0  0  0  0  0  0
   49.3434  -30.3311 -103.5402 C   0  0  2  0  0  0  0  0  0  0  0  0
   45.2453  -27.6034 -103.6819 O   0  0  0  0  0  0  0  0  0  0  0  0
   48.4026  -25.1354 -102.9768 N   0  0  0  0  0  0  0  0  0  0  0  0
   48.3105  -26.1006 -102.0293 C   0  0  0  0  0  0  0  0  0  0  0  0
   48.6200  -27.3871 -102.2942 N   0  0  0  0  0  0  0  0  0  0  0  0
   48.9472  -27.7704 -103.5390 C   0  0  0  0  0  0  0  0  0  0  0  0
   49.0176  -26.7823 -104.5884 C   0  0  0  0  0  0  0  0  0  0  0  0
   48.7363  -25.4247 -104.2524 C   0  0  0  0  0  0  0  0  0  0  0  0
   48.7947  -24.4275 -105.2048 N   0  0  0  0  0  0  0  0  0  0  0  0
   49.3545  -27.4209 -105.7151 N   0  0  0  0  0  0  0  0  0  0  0  0
   49.4859  -28.6884 -105.4588 C   0  0  0  0  0  0  0  0  0  0  0  0
   49.2545  -28.9640 -104.1314 N   0  0  0  0  0  0  0  0  0  0  0  0
  2  1  1  6  0  0  0
  2  3  1  0  0  0  0
  2  5  1  0  0  0  0
  3  4  1  0  0  0  0
  3 17  1  0  0  0  0
  5  6  1  0  0  0  0
  7  6  1  6  0  0  0
  7  8  1  0  0  0  0
  7  9  1  0  0  0  0
 10  9  1  1  0  0  0
 10 11  1  0  0  0  0
 10 12  1  0  0  0  0
 11 16  1  0  0  0  0
 12 13  1  1  0  0  0
 12 14  1  0  0  0  0
 14 15  1  1  0  0  0
 14 16  1  0  0  0  0
 16 27  1  1  0  0  0
 18 19  2  0  0  0  0
 18 23  1  0  0  0  0
 19 20  1  0  0  0  0
 20 21  2  0  0  0  0
 21 22  1  0  0  0  0
 21 27  1  0  0  0  0
 22 23  2  0  0  0  0
 22 25  1  0  0  0  0
 23 24  1  0  0  0  0
 25 26  2  0  0  0  0
 26 27  1  0  0  0  0
M  END
>  <CHROM.1>
73.35986206,-55.20233686,-175.68463128,35.08196245,-51.81867067,93.18869668
35.25733699,47.87844753,-28.95497974,-102.58940717,1.51207007,-0.13646635
2.39560645

>  <Name>
ligand

>  <RI>
0

>  <Rbt.Current_Directory>
/home/itssahil/PROJECTS/Mol_Feturizer/New_Systems/rnas/4L81

>  <Rbt.Executable>
rbdock ($Id: //depot/dev/client3/rdock/2013.1/src/exe/rbdock.cxx#4 $)

>  <Rbt.Library>
libRbt.so (2013.1, Build901 2013/11/27)

>  <Rbt.Parameter_File>
/export/apps/rDock/src/rDock_2013.1_src/data/scripts/dock_solv.prm

>  <Rbt.Receptor>
prm/pocket_docking_2.prm

>  <SCORE>
-8.13466

>  <SCORE.INTER>
-10.6943

>  <SCORE.INTER.CONST>
1

>  <SCORE.INTER.POLAR>
0

>  <SCORE.INTER.ROT>
7

>  <SCORE.INTER.SOLV>
7.60204

>  <SCORE.INTER.VDW>
-17.9302

>  <SCORE.INTER.norm>
-0.396086

>  <SCORE.INTRA>
0.691048

>  <SCORE.INTRA.DIHEDRAL>
-0.580798

>  <SCORE.INTRA.DIHEDRAL.0>
8.34559

>  <SCORE.INTRA.POLAR>
0

>  <SCORE.INTRA.POLAR.0>
0

>  <SCORE.INTRA.REPUL>
0

>  <SCORE.INTRA.REPUL.0>
0

>  <SCORE.INTRA.SOLV>
0.997669

>  <SCORE.INTRA.SOLV.lig_0>
-48.829

>  <SCORE.INTRA.VDW>
0.482612

>  <SCORE.INTRA.VDW.0>
-1.77092

>  <SCORE.INTRA.norm>
0.0255944

>  <SCORE.RESTR>
1.86861

>  <SCORE.RESTR.CAVITY>
1.86861

>  <SCORE.RESTR.norm>
0.0692079

>  <SCORE.SYSTEM>
0

>  <SCORE.SYSTEM.CONST>
0

>  <SCORE.SYSTEM.DIHEDRAL>
0

>  <SCORE.SYSTEM.SOLV>
0

>  <SCORE.SYSTEM.norm>
0

>  <SCORE.heavy>
27

>  <SCORE.norm>
-0.301284

>  <RMSD>
4.910

$$$$
ligand
 OpenBabel11021811503D
libRbt.so/2013.1/901 2013/11/27
 27 29  0  0  0  0  0  0  0  0999 V2000
   46.9641  -24.5666 -107.7538 N   0  0  0  0  0  0  0  0  0  0  0  0
   45.8502  -24.0774 -106.9336 C   0  0  2  0  0  0  0  0  0  0  0  0
   45.7438  -22.5733 -107.0715 C   0  0  0  0  0  0  0  0  0  0  0  0
   46.6921  -21.8607 -106.7790 O   0  0  0  0  0  0  0  0  0  0  0  0
   46.0510  -24.4266 -105.4527 C   0  0  0  0  0  0  0  0  0  0  0  0
   45.7752  -25.9025 -105.2024 C   0  0  0  0  0  0  0  0  0  0  0  0
   45.8354  -26.3611 -103.4277 S   0  0  2  0  0  0  0  0  0  0  0  0
   47.5846  -26.1297 -102.9735 C   0  0  0  0  0  0  0  0  0  0  0  0
   45.8471  -28.1312 -103.7023 C   0  0  0  0  0  0  0  0  0  0  0  0
   45.3845  -28.9317 -102.5139 C   0  0  1  0  0  0  0  0  0  0  0  0
   45.2482  -30.3010 -102.9303 O   0  0  0  0  0  0  0  0  0  0  0  0
   46.5529  -28.8813 -101.6139 C   0  0  1  0  0  0  0  0  0  0  0  0
   46.3641  -27.8554 -100.6406 O   0  0  0  0  0  0  0  0  0  0  0  0
   46.5112  -30.2252 -100.9549 C   0  0  1  0  0  0  0  0  0  0  0  0
   45.6649  -30.1855  -99.7872 O   0  0  0  0  0  0  0  0  0  0  0  0
   45.9115  -31.2033 -102.0093 C   0  0  2  0  0  0  0  0  0  0  0  0
   44.7253  -22.0643 -107.5058 O   0  0  0  0  0  0  0  0  0  0  0  0
   50.8764  -32.7970 -103.0129 N   0  0  0  0  0  0  0  0  0  0  0  0
   50.4607  -31.9445 -102.0442 C   0  0  0  0  0  0  0  0  0  0  0  0
   49.1551  -31.6525 -101.8680 N   0  0  0  0  0  0  0  0  0  0  0  0
   48.2263  -32.1327 -102.7107 C   0  0  0  0  0  0  0  0  0  0  0  0
   48.6292  -33.0116 -103.7820 C   0  0  0  0  0  0  0  0  0  0  0  0
   50.0131  -33.3384 -103.8981 C   0  0  0  0  0  0  0  0  0  0  0  0
   50.4659  -34.1806 -104.8932 N   0  0  0  0  0  0  0  0  0  0  0  0
   47.5264  -33.3369 -104.4668 N   0  0  0  0  0  0  0  0  0  0  0  0
   46.5042  -32.7414 -103.9284 C   0  0  0  0  0  0  0  0  0  0  0  0
   46.8721  -31.9901 -102.8366 N   0  0  0  0  0  0  0  0  0  0  0  0
  2  1  1  6  0  0  0
  2  3  1  0  0  0  0
  2  5  1  0  0  0  0
  3  4  1  0  0  0  0
  3 17  1  0  0  0  0
  5  6  1  0  0  0  0
  7  6  1  6  0  0  0
  7  8  1  0  0  0  0
  7  9  1  0  0  0  0
 10  9  1  6  0  0  0
 10 11  1  0  0  0  0
 10 12  1  0  0  0  0
 11 16  1  0  0  0  0
 12 13  1  1  0  0  0
 12 14  1  0  0  0  0
 14 15  1  1  0  0  0
 14 16  1  0  0  0  0
 16 27  1  6  0  0  0
 18 19  2  0  0  0  0
 18 23  1  0  0  0  0
 19 20  1  0  0  0  0
 20 21  2  0  0  0  0
 21 22  1  0  0  0  0
 21 27  1  0  0  0  0
 22 23  2  0  0  0  0
 22 25  1  0  0  0  0
 23 24  1  0  0  0  0
 25 26  2  0  0  0  0
 26 27  1  0  0  0  0
M  END
>  <CHROM.1>
-58.24527666,-75.13692136,-174.37967221,-66.77501895,-158.36379998,171.37601787
123.05486220,46.97609364,-28.67033458,-103.71476152,-2.01174269,-0.91005866
2.41747032

>  <Name>
ligand

>  <RI>
0

>  <Rbt.Current_Directory>
/home/itssahil/PROJECTS/Mol_Feturizer/New_Systems/rnas/4L81

>  <Rbt.Executable>
rbdock ($Id: //depot/dev/client3/rdock/2013.1/src/exe/rbdock.cxx#4 $)

>  <Rbt.Library>
libRbt.so (2013.1, Build901 2013/11/27)

>  <Rbt.Parameter_File>
/export/apps/rDock/src/rDock_2013.1_src/data/scripts/dock_solv.prm

>  <Rbt.Receptor>
prm/pocket_docking_6.prm

>  <SCORE>
-13.6784

>  <SCORE.INTER>
-12.1089

>  <SCORE.INTER.CONST>
1

>  <SCORE.INTER.POLAR>
0

>  <SCORE.INTER.ROT>
7

>  <SCORE.INTER.SOLV>
10.5194

>  <SCORE.INTER.VDW>
-19.8458

>  <SCORE.INTER.norm>
-0.44848

>  <SCORE.INTRA>
-1.56944

>  <SCORE.INTRA.DIHEDRAL>
-1.71627

>  <SCORE.INTRA.DIHEDRAL.0>
8.34559

>  <SCORE.INTRA.POLAR>
0

>  <SCORE.INTRA.POLAR.0>
0

>  <SCORE.INTRA.REPUL>
0

>  <SCORE.INTRA.REPUL.0>
0

>  <SCORE.INTRA.SOLV>
-0.444741

>  <SCORE.INTRA.SOLV.lig_0>
-48.829

>  <SCORE.INTRA.VDW>
-0.488938

>  <SCORE.INTRA.VDW.0>
-1.77092

>  <SCORE.INTRA.norm>
-0.0581276

>  <SCORE.RESTR>
0

>  <SCORE.RESTR.CAVITY>
0

>  <SCORE.RESTR.norm>
0

>  <SCORE.SYSTEM>
0

>  <SCORE.SYSTEM.CONST>
0

>  <SCORE.SYSTEM.DIHEDRAL>
0

>  <SCORE.SYSTEM.SOLV>
0

>  <SCORE.SYSTEM.norm>
0

>  <SCORE.heavy>
27

>  <SCORE.norm>
-0.506607

>  <RMSD>
4.916

$$$$
ligand
 OpenBabel11021811503D
libRbt.so/2013.1/901 2013/11/27
 27 29  0  0  0  0  0  0  0  0999 V2000
   47.8918  -23.8194 -101.7579 N   0  0  0  0  0  0  0  0  0  0  0  0
   48.1095  -25.0344 -102.5509 C   0  0  2  0  0  0  0  0  0  0  0  0
   49.5797  -25.1591 -102.8909 C   0  0  0  0  0  0  0  0  0  0  0  0
   50.2462  -24.1594 -103.1123 O   0  0  0  0  0  0  0  0  0  0  0  0
   47.2999  -25.0037 -103.8543 C   0  0  0  0  0  0  0  0  0  0  0  0
   47.4951  -26.2907 -104.6433 C   0  0  0  0  0  0  0  0  0  0  0  0
   46.2693  -27.5898 -104.2274 S   0  0  2  0  0  0  0  0  0  0  0  0
   44.7071  -26.6729 -104.0312 C   0  0  0  0  0  0  0  0  0  0  0  0
   46.7343  -27.7270 -102.5030 C   0  0  0  0  0  0  0  0  0  0  0  0
   45.8534  -28.6553 -101.7099 C   0  0  1  0  0  0  0  0  0  0  0  0
   45.6089  -29.8236 -102.5114 O   0  0  0  0  0  0  0  0  0  0  0  0
   46.7383  -29.0803 -100.6081 C   0  0  1  0  0  0  0  0  0  0  0  0
   46.4720  -28.2926  -99.4487 O   0  0  0  0  0  0  0  0  0  0  0  0
   46.3072  -30.4952 -100.3750 C   0  0  1  0  0  0  0  0  0  0  0  0
   45.2038  -30.5371  -99.4466 O   0  0  0  0  0  0  0  0  0  0  0  0
   45.8523  -31.0406 -101.7619 C   0  0  2  0  0  0  0  0  0  0  0  0
   50.1168  -26.2527 -102.9140 O   0  0  0  0  0  0  0  0  0  0  0  0
   50.8880  -32.4674 -102.6586 N   0  0  0  0  0  0  0  0  0  0  0  0
   50.4265  -31.6078 -101.7173 C   0  0  0  0  0  0  0  0  0  0  0  0
   49.1083  -31.3617 -101.5660 N   0  0  0  0  0  0  0  0  0  0  0  0
   48.2105  -31.8978 -102.4086 C   0  0  0  0  0  0  0  0  0  0  0  0
   48.6618  -32.7869 -103.4519 C   0  0  0  0  0  0  0  0  0  0  0  0
   50.0585  -33.0631 -103.5413 C   0  0  0  0  0  0  0  0  0  0  0  0
   50.5572  -33.9118 -104.5087 N   0  0  0  0  0  0  0  0  0  0  0  0
   47.5820  -33.1710 -104.1429 N   0  0  0  0  0  0  0  0  0  0  0  0
   46.5304  -32.6019 -103.6334 C   0  0  0  0  0  0  0  0  0  0  0  0
   46.8538  -31.8103 -102.5562 N   0  0  0  0  0  0  0  0  0  0  0  0
  2  1  1  6  0  0  0
  2  3  1  0  0  0  0
  2  5  1  0  0  0  0
  3  4  1  0  0  0  0
  3 17  1  0  0  0  0
  5  6  1  0  0  0  0
  7  6  1  6  0  0  0
  7  8  1  0  0  0  0
  7  9  1  0  0  0  0
 10  9  1  6  0  0  0
 10 11  1  0  0  0  0
 10 12  1  0  0  0  0
 11 16  1  0  0  0  0
 12 13  1  1  0  0  0
 12 14  1  0  0  0  0
 14 15  1  1  0  0  0
 14 16  1  0  0  0  0
 16 27  1  6  0  0  0
 18 19  2  0  0  0  0
 18 23  1  0  0  0  0
 19 20  1  0  0  0  0
 20 21  2  0  0  0  0
 21 22  1  0  0  0  0
 21 27  1  0  0  0  0
 22 23  2  0  0  0  0
 22 25  1  0  0  0  0
 23 24  1  0  0  0  0
 25 26  2  0  0  0  0
 26 27  1  0  0  0  0
M  END
>  <CHROM.1>
-35.10103181,-177.95070101,90.34336847,39.60964650,174.98901939,42.52871528
97.97349292,47.65111690,-29.09505669,-102.59563561,-1.67150278,-0.41513500
3.07367187

>  <Name>
ligand

>  <RI>
0

>  <Rbt.Current_Directory>
/home/itssahil/PROJECTS/Mol_Feturizer/New_Systems/rnas/4L81

>  <Rbt.Executable>
rbdock ($Id: //depot/dev/client3/rdock/2013.1/src/exe/rbdock.cxx#4 $)

>  <Rbt.Library>
libRbt.so (2013.1, Build901 2013/11/27)

>  <Rbt.Parameter_File>
/export/apps/rDock/src/rDock_2013.1_src/data/scripts/dock_solv.prm

>  <Rbt.Receptor>
prm/pocket_docking_5.prm

>  <SCORE>
-12.4861

>  <SCORE.INTER>
-12.4509

>  <SCORE.INTER.CONST>
1

>  <SCORE.INTER.POLAR>
0

>  <SCORE.INTER.ROT>
7

>  <SCORE.INTER.SOLV>
17.9382

>  <SCORE.INTER.VDW>
-22.5467

>  <SCORE.INTER.norm>
-0.461146

>  <SCORE.INTRA>
-0.0351417

>  <SCORE.INTRA.DIHEDRAL>
-0.912418

>  <SCORE.INTRA.DIHEDRAL.0>
8.34559

>  <SCORE.INTRA.POLAR>
0

>  <SCORE.INTRA.POLAR.0>
0

>  <SCORE.INTRA.REPUL>
0

>  <SCORE.INTRA.REPUL.0>
0

>  <SCORE.INTRA.SOLV>
-0.731554

>  <SCORE.INTRA.SOLV.lig_0>
-48.829

>  <SCORE.INTRA.VDW>
0.786844

>  <SCORE.INTRA.VDW.0>
-1.77092

>  <SCORE.INTRA.norm>
-0.00130154

>  <SCORE.RESTR>
0

>  <SCORE.RESTR.CAVITY>
0

>  <SCORE.RESTR.norm>
0

>  <SCORE.SYSTEM>
0

>  <SCORE.SYSTEM.CONST>
0

>  <SCORE.SYSTEM.DIHEDRAL>
0

>  <SCORE.SYSTEM.SOLV>
0

>  <SCORE.SYSTEM.norm>
0

>  <SCORE.heavy>
27

>  <SCORE.norm>
-0.462447

>  <RMSD>
4.924

$$$$
ligand
 OpenBabel11021811503D
libRbt.so/2013.1/901 2013/11/27
 27 29  0  0  0  0  0  0  0  0999 V2000
   46.2230  -27.2205 -106.3797 N   0  0  0  0  0  0  0  0  0  0  0  0
   44.9561  -27.5941 -105.7410 C   0  0  2  0  0  0  0  0  0  0  0  0
   44.1887  -26.3425 -105.3704 C   0  0  0  0  0  0  0  0  0  0  0  0
   42.9749  -26.3830 -105.2364 O   0  0  0  0  0  0  0  0  0  0  0  0
   45.1933  -28.4244 -104.4722 C   0  0  0  0  0  0  0  0  0  0  0  0
   45.5831  -29.8528 -104.8251 C   0  0  0  0  0  0  0  0  0  0  0  0
   46.9135  -30.5266 -103.7577 S   0  0  2  0  0  0  0  0  0  0  0  0
   47.4158  -32.0627 -104.5990 C   0  0  0  0  0  0  0  0  0  0  0  0
   45.8163  -31.2253 -102.5262 C   0  0  0  0  0  0  0  0  0  0  0  0
   46.1619  -30.8328 -101.1143 C   0  0  1  0  0  0  0  0  0  0  0  0
   47.5898  -30.6857 -101.0342 O   0  0  0  0  0  0  0  0  0  0  0  0
   45.5937  -29.4751 -101.0065 C   0  0  1  0  0  0  0  0  0  0  0  0
   44.3154  -29.5394 -100.3762 O   0  0  0  0  0  0  0  0  0  0  0  0
   46.5729  -28.7858 -100.1075 C   0  0  1  0  0  0  0  0  0  0  0  0
   46.2191  -28.9963  -98.7248 O   0  0  0  0  0  0  0  0  0  0  0  0
   47.9588  -29.4336 -100.4032 C   0  0  2  0  0  0  0  0  0  0  0  0
   44.7775  -25.2945 -105.1706 O   0  0  0  0  0  0  0  0  0  0  0  0
   48.7982  -25.4537 -103.8170 N   0  0  0  0  0  0  0  0  0  0  0  0
   47.6734  -25.7098 -103.1048 C   0  0  0  0  0  0  0  0  0  0  0  0
   47.6037  -26.7377 -102.2333 N   0  0  0  0  0  0  0  0  0  0  0  0
   48.6257  -27.6000 -102.1083 C   0  0  0  0  0  0  0  0  0  0  0  0
   49.8279  -27.3892 -102.8782 C   0  0  0  0  0  0  0  0  0  0  0  0
   49.8797  -26.2583 -103.7464 C   0  0  0  0  0  0  0  0  0  0  0  0
   51.0020  -25.9918 -104.5040 N   0  0  0  0  0  0  0  0  0  0  0  0
   50.6746  -28.3799 -102.5743 N   0  0  0  0  0  0  0  0  0  0  0  0
   50.1082  -29.1693 -101.7109 C   0  0  0  0  0  0  0  0  0  0  0  0
   48.8458  -28.7358 -101.3792 N   0  0  0  0  0  0  0  0  0  0  0  0
  2  1  1  1  0  0  0
  2  3  1  0  0  0  0
  2  5  1  0  0  0  0
  3  4  1  0  0  0  0
  3 17  1  0  0  0  0
  5  6  1  0  0  0  0
  7  6  1  6  0  0  0
  7  8  1  0  0  0  0
  7  9  1  0  0  0  0
 10  9  1  6  0  0  0
 10 11  1  0  0  0  0
 10 12  1  0  0  0  0
 11 16  1  0  0  0  0
 12 13  1  1  0  0  0
 12 14  1  0  0  0  0
 14 15  1  1  0  0  0
 14 16  1  0  0  0  0
 16 27  1  6  0  0  0
 18 19  2  0  0  0  0
 18 23  1  0  0  0  0
 19 20  1  0  0  0  0
 20 21  2  0  0  0  0
 21 22  1  0  0  0  0
 21 27  1  0  0  0  0
 22 23  2  0  0  0  0
 22 25  1  0  0  0  0
 23 24  1  0  0  0  0
 25 26  2  0  0  0  0
 26 27  1  0  0  0  0
M  END
>  <CHROM.1>
156.31455511,-75.86651312,139.35838728,-168.51252918,-129.27409841,-32.66533995
111.50377857,47.00678789,-28.43585235,-102.95341828,-1.93471358,0.33245667
2.35541869

>  <Name>
ligand

>  <RI>
0

>  <Rbt.Current_Directory>
/home/itssahil/PROJECTS/Mol_Feturizer/New_Systems/rnas/4L81

>  <Rbt.Executable>
rbdock ($Id: //depot/dev/client3/rdock/2013.1/src/exe/rbdock.cxx#4 $)

>  <Rbt.Library>
libRbt.so (2013.1, Build901 2013/11/27)

>  <Rbt.Parameter_File>
/export/apps/rDock/src/rDock_2013.1_src/data/scripts/dock_solv.prm

>  <Rbt.Receptor>
prm/pocket_docking_3.prm

>  <SCORE>
-9.25049

>  <SCORE.INTER>
-10.0245

>  <SCORE.INTER.CONST>
1

>  <SCORE.INTER.POLAR>
0

>  <SCORE.INTER.ROT>
7

>  <SCORE.INTER.SOLV>
15.19

>  <SCORE.INTER.VDW>
-20.013

>  <SCORE.INTER.norm>
-0.371276

>  <SCORE.INTRA>
0.773958

>  <SCORE.INTRA.DIHEDRAL>
7.81416

>  <SCORE.INTRA.DIHEDRAL.0>
8.34559

>  <SCORE.INTRA.POLAR>
0

>  <SCORE.INTRA.POLAR.0>
0

>  <SCORE.INTRA.REPUL>
0

>  <SCORE.INTRA.REPUL.0>
0

>  <SCORE.INTRA.SOLV>
-0.135999

>  <SCORE.INTRA.SOLV.lig_0>
-48.829

>  <SCORE.INTRA.VDW>
-3.06512

>  <SCORE.INTRA.VDW.0>
-1.77092

>  <SCORE.INTRA.norm>
0.0286651

>  <SCORE.RESTR>
0

>  <SCORE.RESTR.CAVITY>
0

>  <SCORE.RESTR.norm>
0

>  <SCORE.SYSTEM>
0

>  <SCORE.SYSTEM.CONST>
0

>  <SCORE.SYSTEM.DIHEDRAL>
0

>  <SCORE.SYSTEM.SOLV>
0

>  <SCORE.SYSTEM.norm>
0

>  <SCORE.heavy>
27

>  <SCORE.norm>
-0.342611

>  <RMSD>
4.936

$$$$
ligand
 OpenBabel11021811503D
libRbt.so/2013.1/901 2013/11/27
 27 29  0  0  0  0  0  0  0  0999 V2000
   46.9790  -24.6358 -107.7370 N   0  0  0  0  0  0  0  0  0  0  0  0
   45.8860  -24.0670 -106.9404 C   0  0  2  0  0  0  0  0  0  0  0  0
   45.8914  -22.5592 -107.0792 C   0  0  0  0  0  0  0  0  0  0  0  0
   44.8509  -21.9588 -107.3018 O   0  0  0  0  0  0  0  0  0  0  0  0
   46.0292  -24.4289 -105.4559 C   0  0  0  0  0  0  0  0  0  0  0  0
   45.6733  -25.8896 -105.2181 C   0  0  0  0  0  0  0  0  0  0  0  0
   45.7584  -26.3791 -103.4527 S   0  0  2  0  0  0  0  0  0  0  0  0
   47.5240  -26.2116 -103.0353 C   0  0  0  0  0  0  0  0  0  0  0  0
   45.7064  -28.1439 -103.7553 C   0  0  0  0  0  0  0  0  0  0  0  0
   45.2239  -28.9467 -102.5765 C   0  0  1  0  0  0  0  0  0  0  0  0
   45.1045  -30.3169 -102.9949 O   0  0  0  0  0  0  0  0  0  0  0  0
   46.3729  -28.8891 -101.6523 C   0  0  1  0  0  0  0  0  0  0  0  0
   46.1577  -27.8640 -100.6836 O   0  0  0  0  0  0  0  0  0  0  0  0
   46.3254  -30.2330 -100.9937 C   0  0  1  0  0  0  0  0  0  0  0  0
   45.4548  -30.1979  -99.8439 O   0  0  0  0  0  0  0  0  0  0  0  0
   45.7537  -31.2150 -102.0600 C   0  0  2  0  0  0  0  0  0  0  0  0
   46.9256  -21.9305 -106.9373 O   0  0  0  0  0  0  0  0  0  0  0  0
   50.7584  -32.7156 -103.0080 N   0  0  0  0  0  0  0  0  0  0  0  0
   50.3187  -31.8534 -102.0587 C   0  0  0  0  0  0  0  0  0  0  0  0
   49.0059  -31.5875 -101.8946 N   0  0  0  0  0  0  0  0  0  0  0  0
   48.0924  -32.1056 -102.7316 C   0  0  0  0  0  0  0  0  0  0  0  0
   48.5205  -32.9966 -103.7830 C   0  0  0  0  0  0  0  0  0  0  0  0
   49.9120  -33.2941 -103.8860 C   0  0  0  0  0  0  0  0  0  0  0  0
   50.3888  -34.1458 -104.8617 N   0  0  0  0  0  0  0  0  0  0  0  0
   47.4289  -33.3606 -104.4661 N   0  0  0  0  0  0  0  0  0  0  0  0
   46.3908  -32.7776 -103.9447 C   0  0  0  0  0  0  0  0  0  0  0  0
   46.7360  -31.9963 -102.8667 N   0  0  0  0  0  0  0  0  0  0  0  0
  2  1  1  6  0  0  0
  2  3  1  0  0  0  0
  2  5  1  0  0  0  0
  3  4  1  0  0  0  0
  3 17  1  0  0  0  0
  5  6  1  0  0  0  0
  7  6  1  6  0  0  0
  7  8  1  0  0  0  0
  7  9  1  0  0  0  0
 10  9  1  6  0  0  0
 10 11  1  0  0  0  0
 10 12  1  0  0  0  0
 11 16  1  0  0  0  0
 12 13  1  1  0  0  0
 12 14  1  0  0  0  0
 14 15  1  1  0  0  0
 14 16  1  0  0  0  0
 16 27  1  6  0  0  0
 18 19  2  0  0  0  0
 18 23  1  0  0  0  0
 19 20  1  0  0  0  0
 20 21  2  0  0  0  0
 21 22  1  0  0  0  0
 21 27  1  0  0  0  0
 22 23  2  0  0  0  0
 22 25  1  0  0  0  0
 23 24  1  0  0  0  0
 25 26  2  0  0  0  0
 26 27  1  0  0  0  0
M  END
>  <CHROM.1>
133.24719007,-73.81881491,-177.75594518,-65.16285116,-157.43942127,174.35728383
121.30884237,46.89397452,-28.66842460,-103.73480540,-1.95340498,-0.86694633
2.47723969

>  <Name>
ligand

>  <RI>
0

>  <Rbt.Current_Directory>
/home/itssahil/PROJECTS/Mol_Feturizer/New_Systems/rnas/4L81

>  <Rbt.Executable>
rbdock ($Id: //depot/dev/client3/rdock/2013.1/src/exe/rbdock.cxx#4 $)

>  <Rbt.Library>
libRbt.so (2013.1, Build901 2013/11/27)

>  <Rbt.Parameter_File>
/export/apps/rDock/src/rDock_2013.1_src/data/scripts/dock_solv.prm

>  <Rbt.Receptor>
prm/pocket_docking_7.prm

>  <SCORE>
-14.0346

>  <SCORE.INTER>
-12.351

>  <SCORE.INTER.CONST>
1

>  <SCORE.INTER.POLAR>
0

>  <SCORE.INTER.ROT>
7

>  <SCORE.INTER.SOLV>
10.788

>  <SCORE.INTER.VDW>
-20.0966

>  <SCORE.INTER.norm>
-0.457443

>  <SCORE.INTRA>
-1.68367

>  <SCORE.INTRA.DIHEDRAL>
-1.99214

>  <SCORE.INTRA.DIHEDRAL.0>
8.34559

>  <SCORE.INTRA.POLAR>
0

>  <SCORE.INTRA.POLAR.0>
0

>  <SCORE.INTRA.REPUL>
0

>  <SCORE.INTRA.REPUL.0>
0

>  <SCORE.INTRA.SOLV>
-0.436525

>  <SCORE.INTRA.SOLV.lig_0>
-48.829

>  <SCORE.INTRA.VDW>
-0.469339

>  <SCORE.INTRA.VDW.0>
-1.77092

>  <SCORE.INTRA.norm>
-0.0623581

>  <SCORE.RESTR>
0

>  <SCORE.RESTR.CAVITY>
0

>  <SCORE.RESTR.norm>
0

>  <SCORE.SYSTEM>
0

>  <SCORE.SYSTEM.CONST>
0

>  <SCORE.SYSTEM.DIHEDRAL>
0

>  <SCORE.SYSTEM.SOLV>
0

>  <SCORE.SYSTEM.norm>
0

>  <SCORE.heavy>
27

>  <SCORE.norm>
-0.519801

>  <RMSD>
4.938

$$$$
ligand
 OpenBabel11021811503D
libRbt.so/2013.1/901 2013/11/27
 27 29  0  0  0  0  0  0  0  0999 V2000
   46.6026  -27.9609 -105.6595 N   0  0  0  0  0  0  0  0  0  0  0  0
   45.1722  -27.9562 -105.3330 C   0  0  2  0  0  0  0  0  0  0  0  0
   44.7010  -26.5291 -105.1478 C   0  0  0  0  0  0  0  0  0  0  0  0
   45.4987  -25.6519 -104.8530 O   0  0  0  0  0  0  0  0  0  0  0  0
   44.8902  -28.7426 -104.0456 C   0  0  0  0  0  0  0  0  0  0  0  0
   45.2672  -30.2078 -104.2127 C   0  0  0  0  0  0  0  0  0  0  0  0
   44.8954  -31.2259 -102.7333 S   0  0  2  0  0  0  0  0  0  0  0  0
   43.2645  -30.6260 -102.1858 C   0  0  0  0  0  0  0  0  0  0  0  0
   45.9314  -30.2914 -101.6099 C   0  0  0  0  0  0  0  0  0  0  0  0
   47.2621  -30.9389 -101.3323 C   0  0  1  0  0  0  0  0  0  0  0  0
   48.0578  -30.8412 -102.5257 O   0  0  0  0  0  0  0  0  0  0  0  0
   47.8694  -30.0233 -100.3471 C   0  0  1  0  0  0  0  0  0  0  0  0
   47.6647  -30.5323  -99.0302 O   0  0  0  0  0  0  0  0  0  0  0  0
   49.3232  -30.0876 -100.6999 C   0  0  1  0  0  0  0  0  0  0  0  0
   49.9593  -31.1827 -100.0090 O   0  0  0  0  0  0  0  0  0  0  0  0
   49.3827  -30.3272 -102.2384 C   0  0  2  0  0  0  0  0  0  0  0  0
   43.5307  -26.2384 -105.3234 O   0  0  0  0  0  0  0  0  0  0  0  0
   48.6038  -25.1506 -103.1300 N   0  0  0  0  0  0  0  0  0  0  0  0
   48.1813  -25.8803 -102.0684 C   0  0  0  0  0  0  0  0  0  0  0  0
   48.4844  -27.1891 -101.9408 N   0  0  0  0  0  0  0  0  0  0  0  0
   49.1453  -27.8369 -102.9140 C   0  0  0  0  0  0  0  0  0  0  0  0
   49.5785  -27.1081 -104.0818 C   0  0  0  0  0  0  0  0  0  0  0  0
   49.2851  -25.7137 -104.1503 C   0  0  0  0  0  0  0  0  0  0  0  0
   49.6785  -24.9545 -105.2336 N   0  0  0  0  0  0  0  0  0  0  0  0
   50.1995  -27.9782 -104.8869 N   0  0  0  0  0  0  0  0  0  0  0  0
   50.1790  -29.1541 -104.3336 C   0  0  0  0  0  0  0  0  0  0  0  0
   49.5487  -29.1286 -103.1114 N   0  0  0  0  0  0  0  0  0  0  0  0
  2  1  1  1  0  0  0
  2  3  1  0  0  0  0
  2  5  1  0  0  0  0
  3  4  1  0  0  0  0
  3 17  1  0  0  0  0
  5  6  1  0  0  0  0
  7  6  1  6  0  0  0
  7  8  1  0  0  0  0
  7  9  1  0  0  0  0
 10  9  1  6  0  0  0
 10 11  1  0  0  0  0
 10 12  1  0  0  0  0
 11 16  1  0  0  0  0
 12 13  1  1  0  0  0
 12 14  1  0  0  0  0
 14 15  1  1  0  0  0
 14 16  1  0  0  0  0
 16 27  1  6  0  0  0
 18 19  2  0  0  0  0
 18 23  1  0  0  0  0
 19 20  1  0  0  0  0
 20 21  2  0  0  0  0
 21 22  1  0  0  0  0
 21 27  1  0  0  0  0
 22 23  2  0  0  0  0
 22 25  1  0  0  0  0
 23 24  1  0  0  0  0
 25 26  2  0  0  0  0
 26 27  1  0  0  0  0
M  END
>  <CHROM.1>
-23.29889309,-62.75325770,-177.72109631,41.55194475,-100.65951859,70.66287269
83.80481718,47.30666908,-28.66784638,-103.03439040,1.70064919,-0.27934497
-0.65620116

>  <Name>
ligand

>  <RI>
0

>  <Rbt.Current_Directory>
/home/itssahil/PROJECTS/Mol_Feturizer/New_Systems/rnas/4L81

>  <Rbt.Executable>
rbdock ($Id: //depot/dev/client3/rdock/2013.1/src/exe/rbdock.cxx#4 $)

>  <Rbt.Library>
libRbt.so (2013.1, Build901 2013/11/27)

>  <Rbt.Parameter_File>
/export/apps/rDock/src/rDock_2013.1_src/data/scripts/dock_solv.prm

>  <Rbt.Receptor>
prm/pocket_docking_3.prm

>  <SCORE>
-16.8339

>  <SCORE.INTER>
-14.6753

>  <SCORE.INTER.CONST>
1

>  <SCORE.INTER.POLAR>
0

>  <SCORE.INTER.ROT>
7

>  <SCORE.INTER.SOLV>
9.64329

>  <SCORE.INTER.VDW>
-21.2646

>  <SCORE.INTER.norm>
-0.54353

>  <SCORE.INTRA>
-2.15858

>  <SCORE.INTRA.DIHEDRAL>
-1.74656

>  <SCORE.INTRA.DIHEDRAL.0>
8.34559

>  <SCORE.INTRA.POLAR>
0

>  <SCORE.INTRA.POLAR.0>
0

>  <SCORE.INTRA.REPUL>
0

>  <SCORE.INTRA.REPUL.0>
0

>  <SCORE.INTRA.SOLV>
0.318164

>  <SCORE.INTRA.SOLV.lig_0>
-48.829

>  <SCORE.INTRA.VDW>
-1.44438

>  <SCORE.INTRA.VDW.0>
-1.77092

>  <SCORE.INTRA.norm>
-0.0799472

>  <SCORE.RESTR>
0

>  <SCORE.RESTR.CAVITY>
0

>  <SCORE.RESTR.norm>
0

>  <SCORE.SYSTEM>
0

>  <SCORE.SYSTEM.CONST>
0

>  <SCORE.SYSTEM.DIHEDRAL>
0

>  <SCORE.SYSTEM.SOLV>
0

>  <SCORE.SYSTEM.norm>
0

>  <SCORE.heavy>
27

>  <SCORE.norm>
-0.623477

>  <RMSD>
4.954

$$$$
ligand
 OpenBabel11021811503D
libRbt.so/2013.1/901 2013/11/27
 27 29  0  0  0  0  0  0  0  0999 V2000
   44.1087  -29.1597 -102.3728 N   0  0  0  0  0  0  0  0  0  0  0  0
   44.6137  -30.4969 -102.0417 C   0  0  2  0  0  0  0  0  0  0  0  0
   43.4738  -31.4926 -102.0856 C   0  0  0  0  0  0  0  0  0  0  0  0
   42.4602  -31.2956 -101.4325 O   0  0  0  0  0  0  0  0  0  0  0  0
   45.2438  -30.5257 -100.6426 C   0  0  0  0  0  0  0  0  0  0  0  0
   46.3424  -29.4792 -100.5220 C   0  0  0  0  0  0  0  0  0  0  0  0
   47.5884  -29.5772 -101.8642 S   0  0  2  0  0  0  0  0  0  0  0  0
   48.5321  -31.0870 -101.4779 C   0  0  0  0  0  0  0  0  0  0  0  0
   48.7012  -28.3616 -101.1622 C   0  0  0  0  0  0  0  0  0  0  0  0
   49.6922  -27.8056 -102.1500 C   0  0  1  0  0  0  0  0  0  0  0  0
   50.4106  -28.9108 -102.7239 O   0  0  0  0  0  0  0  0  0  0  0  0
   48.8230  -27.2714 -103.2161 C   0  0  1  0  0  0  0  0  0  0  0  0
   48.6460  -25.8678 -103.0317 O   0  0  0  0  0  0  0  0  0  0  0  0
   49.6314  -27.5269 -104.4503 C   0  0  1  0  0  0  0  0  0  0  0  0
   50.5337  -26.4283 -104.6957 O   0  0  0  0  0  0  0  0  0  0  0  0
   50.4445  -28.8265 -104.1709 C   0  0  2  0  0  0  0  0  0  0  0  0
   43.5442  -32.4796 -102.7967 O   0  0  0  0  0  0  0  0  0  0  0  0
   46.6652  -31.4519 -106.8209 N   0  0  0  0  0  0  0  0  0  0  0  0
   46.7402  -30.1179 -106.5911 C   0  0  0  0  0  0  0  0  0  0  0  0
   47.7832  -29.5682 -105.9344 N   0  0  0  0  0  0  0  0  0  0  0  0
   48.7447  -30.3427 -105.4061 C   0  0  0  0  0  0  0  0  0  0  0  0
   48.6833  -31.7726 -105.5912 C   0  0  0  0  0  0  0  0  0  0  0  0
   47.5922  -32.3067 -106.3393 C   0  0  0  0  0  0  0  0  0  0  0  0
   47.4772  -33.6637 -106.5625 N   0  0  0  0  0  0  0  0  0  0  0  0
   49.7440  -32.3009 -104.9694 N   0  0  0  0  0  0  0  0  0  0  0  0
   50.4325  -31.3437 -104.4224 C   0  0  0  0  0  0  0  0  0  0  0  0
   49.8698  -30.1122 -104.6638 N   0  0  0  0  0  0  0  0  0  0  0  0
  2  1  1  1  0  0  0
  2  3  1  0  0  0  0
  2  5  1  0  0  0  0
  3  4  1  0  0  0  0
  3 17  1  0  0  0  0
  5  6  1  0  0  0  0
  7  6  1  1  0  0  0
  7  8  1  0  0  0  0
  7  9  1  0  0  0  0
 10  9  1  1  0  0  0
 10 11  1  0  0  0  0
 10 12  1  0  0  0  0
 11 16  1  0  0  0  0
 12 13  1  1  0  0  0
 12 14  1  0  0  0  0
 14 15  1  1  0  0  0
 14 16  1  0  0  0  0
 16 27  1  6  0  0  0
 18 19  2  0  0  0  0
 18 23  1  0  0  0  0
 19 20  1  0  0  0  0
 20 21  2  0  0  0  0
 21 22  1  0  0  0  0
 21 27  1  0  0  0  0
 22 23  2  0  0  0  0
 22 25  1  0  0  0  0
 23 24  1  0  0  0  0
 25 26  2  0  0  0  0
 26 27  1  0  0  0  0
M  END
>  <CHROM.1>
-53.93107129,-55.75547019,-52.04232504,-72.06656715,-162.27502041,-55.68607890
117.33774894,47.62343862,-29.92500205,-103.49021772,3.08829529,-0.53075841
-2.30747128

>  <Name>
ligand

>  <RI>
0

>  <Rbt.Current_Directory>
/home/itssahil/PROJECTS/Mol_Feturizer/New_Systems/rnas/4L81

>  <Rbt.Executable>
rbdock ($Id: //depot/dev/client3/rdock/2013.1/src/exe/rbdock.cxx#4 $)

>  <Rbt.Library>
libRbt.so (2013.1, Build901 2013/11/27)

>  <Rbt.Parameter_File>
/export/apps/rDock/src/rDock_2013.1_src/data/scripts/dock_solv.prm

>  <Rbt.Receptor>
prm/pocket_docking_6.prm

>  <SCORE>
-11.2613

>  <SCORE.INTER>
-8.68148

>  <SCORE.INTER.CONST>
1

>  <SCORE.INTER.POLAR>
0

>  <SCORE.INTER.ROT>
7

>  <SCORE.INTER.SOLV>
13.1978

>  <SCORE.INTER.VDW>
-18.4536

>  <SCORE.INTER.norm>
-0.321536

>  <SCORE.INTRA>
-2.57986

>  <SCORE.INTRA.DIHEDRAL>
-3.00357

>  <SCORE.INTRA.DIHEDRAL.0>
8.34559

>  <SCORE.INTRA.POLAR>
0

>  <SCORE.INTRA.POLAR.0>
0

>  <SCORE.INTRA.REPUL>
0

>  <SCORE.INTRA.REPUL.0>
0

>  <SCORE.INTRA.SOLV>
0.585675

>  <SCORE.INTRA.SOLV.lig_0>
-48.829

>  <SCORE.INTRA.VDW>
-1.37092

>  <SCORE.INTRA.VDW.0>
-1.77092

>  <SCORE.INTRA.norm>
-0.0955505

>  <SCORE.RESTR>
0

>  <SCORE.RESTR.CAVITY>
0

>  <SCORE.RESTR.norm>
0

>  <SCORE.SYSTEM>
0

>  <SCORE.SYSTEM.CONST>
0

>  <SCORE.SYSTEM.DIHEDRAL>
0

>  <SCORE.SYSTEM.SOLV>
0

>  <SCORE.SYSTEM.norm>
0

>  <SCORE.heavy>
27

>  <SCORE.norm>
-0.417087

>  <RMSD>
4.958

$$$$
ligand
 OpenBabel11021811503D
libRbt.so/2013.1/901 2013/11/27
 27 29  0  0  0  0  0  0  0  0999 V2000
   45.9858  -23.6297 -107.0838 N   0  0  0  0  0  0  0  0  0  0  0  0
   46.2008  -24.8988 -106.3796 C   0  0  2  0  0  0  0  0  0  0  0  0
   46.9806  -25.8443 -107.2688 C   0  0  0  0  0  0  0  0  0  0  0  0
   47.8234  -26.5862 -106.7872 O   0  0  0  0  0  0  0  0  0  0  0  0
   44.8688  -25.5601 -106.0001 C   0  0  0  0  0  0  0  0  0  0  0  0
   45.1013  -26.7785 -105.1180 C   0  0  0  0  0  0  0  0  0  0  0  0
   45.4504  -26.3520 -103.3688 S   0  0  2  0  0  0  0  0  0  0  0  0
   47.0227  -25.4347 -103.4459 C   0  0  0  0  0  0  0  0  0  0  0  0
   46.0864  -27.9643 -102.9165 C   0  0  0  0  0  0  0  0  0  0  0  0
   45.0225  -29.0226 -102.7936 C   0  0  1  0  0  0  0  0  0  0  0  0
   45.3623  -30.0958 -103.6878 O   0  0  0  0  0  0  0  0  0  0  0  0
   45.2307  -29.5348 -101.4254 C   0  0  1  0  0  0  0  0  0  0  0  0
   44.3113  -28.9066 -100.5335 O   0  0  0  0  0  0  0  0  0  0  0  0
   44.8926  -30.9864 -101.5691 C   0  0  1  0  0  0  0  0  0  0  0  0
   43.4768  -31.1927 -101.3840 O   0  0  0  0  0  0  0  0  0  0  0  0
   45.2990  -31.3815 -103.0206 C   0  0  2  0  0  0  0  0  0  0  0  0
   46.7513  -25.8966 -108.4645 O   0  0  0  0  0  0  0  0  0  0  0  0
   50.4053  -31.7933 -101.6224 N   0  0  0  0  0  0  0  0  0  0  0  0
   49.4713  -30.9560 -101.1080 C   0  0  0  0  0  0  0  0  0  0  0  0
   48.1885  -30.9808 -101.5260 N   0  0  0  0  0  0  0  0  0  0  0  0
   47.8128  -31.7821 -102.5361 C   0  0  0  0  0  0  0  0  0  0  0  0
   48.7842  -32.6611 -103.1413 C   0  0  0  0  0  0  0  0  0  0  0  0
   50.1165  -32.6422 -102.6313 C   0  0  0  0  0  0  0  0  0  0  0  0
   51.0930  -33.4638 -103.1570 N   0  0  0  0  0  0  0  0  0  0  0  0
   48.1596  -33.3371 -104.1126 N   0  0  0  0  0  0  0  0  0  0  0  0
   46.9187  -32.9534 -104.1632 C   0  0  0  0  0  0  0  0  0  0  0  0
   46.6431  -32.0011 -103.2099 N   0  0  0  0  0  0  0  0  0  0  0  0
  2  1  1  6  0  0  0
  2  3  1  0  0  0  0
  2  5  1  0  0  0  0
  3  4  1  0  0  0  0
  3 17  1  0  0  0  0
  5  6  1  0  0  0  0
  7  6  1  6  0  0  0
  7  8  1  0  0  0  0
  7  9  1  0  0  0  0
 10  9  1  6  0  0  0
 10 11  1  0  0  0  0
 10 12  1  0  0  0  0
 11 16  1  0  0  0  0
 12 13  1  1  0  0  0
 12 14  1  0  0  0  0
 14 15  1  6  0  0  0
 14 16  1  0  0  0  0
 16 27  1  1  0  0  0
 18 19  2  0  0  0  0
 18 23  1  0  0  0  0
 19 20  1  0  0  0  0
 20 21  2  0  0  0  0
 21 22  1  0  0  0  0
 21 27  1  0  0  0  0
 22 23  2  0  0  0  0
 22 25  1  0  0  0  0
 23 24  1  0  0  0  0
 25 26  2  0  0  0  0
 26 27  1  0  0  0  0
M  END
>  <CHROM.1>
142.65069658,-172.71973230,78.55722292,-63.97690508,-73.41925055,123.06136728
80.17145640,46.67203232,-29.13399213,-103.65964606,-1.88849897,-0.56416470
2.47369407

>  <Name>
ligand

>  <RI>
0

>  <Rbt.Current_Directory>
/home/itssahil/PROJECTS/Mol_Feturizer/New_Systems/rnas/4L81

>  <Rbt.Executable>
rbdock ($Id: //depot/dev/client3/rdock/2013.1/src/exe/rbdock.cxx#4 $)

>  <Rbt.Library>
libRbt.so (2013.1, Build901 2013/11/27)

>  <Rbt.Parameter_File>
/export/apps/rDock/src/rDock_2013.1_src/data/scripts/dock_solv.prm

>  <Rbt.Receptor>
prm/pocket_docking_7.prm

>  <SCORE>
-14.8805

>  <SCORE.INTER>
-14.2265

>  <SCORE.INTER.CONST>
1

>  <SCORE.INTER.POLAR>
0

>  <SCORE.INTER.ROT>
7

>  <SCORE.INTER.SOLV>
14.7834

>  <SCORE.INTER.VDW>
-22.6788

>  <SCORE.INTER.norm>
-0.526906

>  <SCORE.INTRA>
-0.654055

>  <SCORE.INTRA.DIHEDRAL>
1.41365

>  <SCORE.INTRA.DIHEDRAL.0>
8.34559

>  <SCORE.INTRA.POLAR>
0

>  <SCORE.INTRA.POLAR.0>
0

>  <SCORE.INTRA.REPUL>
0

>  <SCORE.INTRA.REPUL.0>
0

>  <SCORE.INTRA.SOLV>
-0.733672

>  <SCORE.INTRA.SOLV.lig_0>
-48.829

>  <SCORE.INTRA.VDW>
-0.994045

>  <SCORE.INTRA.VDW.0>
-1.77092

>  <SCORE.INTRA.norm>
-0.0242243

>  <SCORE.RESTR>
0

>  <SCORE.RESTR.CAVITY>
0

>  <SCORE.RESTR.norm>
0

>  <SCORE.SYSTEM>
0

>  <SCORE.SYSTEM.CONST>
0

>  <SCORE.SYSTEM.DIHEDRAL>
0

>  <SCORE.SYSTEM.SOLV>
0

>  <SCORE.SYSTEM.norm>
0

>  <SCORE.heavy>
27

>  <SCORE.norm>
-0.55113

>  <RMSD>
4.966

$$$$
ligand
 OpenBabel11021811503D
libRbt.so/2013.1/901 2013/11/27
 27 29  0  0  0  0  0  0  0  0999 V2000
   45.3313  -30.1984 -103.5032 N   0  0  0  0  0  0  0  0  0  0  0  0
   45.1720  -29.5249 -102.2095 C   0  0  2  0  0  0  0  0  0  0  0  0
   43.9779  -30.1051 -101.4814 C   0  0  0  0  0  0  0  0  0  0  0  0
   42.8623  -30.0309 -101.9741 O   0  0  0  0  0  0  0  0  0  0  0  0
   44.9589  -28.0155 -102.3876 C   0  0  0  0  0  0  0  0  0  0  0  0
   46.0886  -27.4017 -103.2023 C   0  0  0  0  0  0  0  0  0  0  0  0
   45.5168  -26.1279 -104.3913 S   0  0  2  0  0  0  0  0  0  0  0  0
   44.0301  -26.8651 -105.1434 C   0  0  0  0  0  0  0  0  0  0  0  0
   46.7074  -26.5296 -105.6679 C   0  0  0  0  0  0  0  0  0  0  0  0
   48.0302  -25.8293 -105.5047 C   0  0  1  0  0  0  0  0  0  0  0  0
   48.3551  -25.8206 -104.1042 O   0  0  0  0  0  0  0  0  0  0  0  0
   48.9738  -26.7637 -106.1483 C   0  0  1  0  0  0  0  0  0  0  0  0
   49.2330  -26.3379 -107.4851 O   0  0  0  0  0  0  0  0  0  0  0  0
   50.2063  -26.6044 -105.3130 C   0  0  1  0  0  0  0  0  0  0  0  0
   51.0125  -25.5163 -105.8105 O   0  0  0  0  0  0  0  0  0  0  0  0
   49.7107  -26.2793 -103.8720 C   0  0  2  0  0  0  0  0  0  0  0  0
   44.1240  -30.6788 -100.4163 O   0  0  0  0  0  0  0  0  0  0  0  0
   50.4624  -31.4093 -102.7246 N   0  0  0  0  0  0  0  0  0  0  0  0
   50.7398  -30.7724 -103.8888 C   0  0  0  0  0  0  0  0  0  0  0  0
   50.5386  -29.4463 -104.0379 N   0  0  0  0  0  0  0  0  0  0  0  0
   49.9695  -28.7256 -103.0579 C   0  0  0  0  0  0  0  0  0  0  0  0
   49.6199  -29.3716 -101.8158 C   0  0  0  0  0  0  0  0  0  0  0  0
   49.9008  -30.7638 -101.6805 C   0  0  0  0  0  0  0  0  0  0  0  0
   49.6014  -31.4419 -100.5164 N   0  0  0  0  0  0  0  0  0  0  0  0
   49.0720  -28.4425 -101.0237 N   0  0  0  0  0  0  0  0  0  0  0  0
   49.0461  -27.3087 -101.6587 C   0  0  0  0  0  0  0  0  0  0  0  0
   49.5930  -27.4187 -102.9158 N   0  0  0  0  0  0  0  0  0  0  0  0
  2  1  1  6  0  0  0
  2  3  1  0  0  0  0
  2  5  1  0  0  0  0
  3  4  1  0  0  0  0
  3 17  1  0  0  0  0
  5  6  1  0  0  0  0
  7  6  1  1  0  0  0
  7  8  1  0  0  0  0
  7  9  1  0  0  0  0
 10  9  1  1  0  0  0
 10 11  1  0  0  0  0
 10 12  1  0  0  0  0
 11 16  1  0  0  0  0
 12 13  1  6  0  0  0
 12 14  1  0  0  0  0
 14 15  1  6  0  0  0
 14 16  1  0  0  0  0
 16 27  1  1  0  0  0
 18 19  2  0  0  0  0
 18 23  1  0  0  0  0
 19 20  1  0  0  0  0
 20 21  2  0  0  0  0
 21 22  1  0  0  0  0
 21 27  1  0  0  0  0
 22 23  2  0  0  0  0
 22 25  1  0  0  0  0
 23 24  1  0  0  0  0
 25 26  2  0  0  0  0
 26 27  1  0  0  0  0
M  END
>  <CHROM.1>
-60.89001653,-55.18842490,140.35785744,-43.80749055,-86.16058805,39.84906124
120.03284348,47.70611304,-28.14584739,-103.48912173,2.43093238,-0.09303918
2.41010859

>  <Name>
ligand

>  <RI>
0

>  <Rbt.Current_Directory>
/home/itssahil/PROJECTS/Mol_Feturizer/New_Systems/rnas/4L81

>  <Rbt.Executable>
rbdock ($Id: //depot/dev/client3/rdock/2013.1/src/exe/rbdock.cxx#4 $)

>  <Rbt.Library>
libRbt.so (2013.1, Build901 2013/11/27)

>  <Rbt.Parameter_File>
/export/apps/rDock/src/rDock_2013.1_src/data/scripts/dock_solv.prm

>  <Rbt.Receptor>
prm/pocket_docking_2.prm

>  <SCORE>
-5.30853

>  <SCORE.INTER>
-7.29999

>  <SCORE.INTER.CONST>
1

>  <SCORE.INTER.POLAR>
0

>  <SCORE.INTER.ROT>
7

>  <SCORE.INTER.SOLV>
15.5724

>  <SCORE.INTER.VDW>
-18.3241

>  <SCORE.INTER.norm>
-0.27037

>  <SCORE.INTRA>
0.932076

>  <SCORE.INTRA.DIHEDRAL>
2.94678

>  <SCORE.INTRA.DIHEDRAL.0>
8.34559

>  <SCORE.INTRA.POLAR>
0

>  <SCORE.INTRA.POLAR.0>
0

>  <SCORE.INTRA.REPUL>
0

>  <SCORE.INTRA.REPUL.0>
0

>  <SCORE.INTRA.SOLV>
0.636174

>  <SCORE.INTRA.SOLV.lig_0>
-48.829

>  <SCORE.INTRA.VDW>
-0.859399

>  <SCORE.INTRA.VDW.0>
-1.77092

>  <SCORE.INTRA.norm>
0.0345213

>  <SCORE.RESTR>
1.05939

>  <SCORE.RESTR.CAVITY>
1.05939

>  <SCORE.RESTR.norm>
0.0392365

>  <SCORE.SYSTEM>
0

>  <SCORE.SYSTEM.CONST>
0

>  <SCORE.SYSTEM.DIHEDRAL>
0

>  <SCORE.SYSTEM.SOLV>
0

>  <SCORE.SYSTEM.norm>
0

>  <SCORE.heavy>
27

>  <SCORE.norm>
-0.196612

>  <RMSD>
4.968

$$$$
ligand
 OpenBabel11021811503D
libRbt.so/2013.1/901 2013/11/27
 27 29  0  0  0  0  0  0  0  0999 V2000
   46.7535  -26.1271 -105.0735 N   0  0  0  0  0  0  0  0  0  0  0  0
   45.5622  -26.8945 -104.6931 C   0  0  2  0  0  0  0  0  0  0  0  0
   44.3332  -26.2562 -105.3053 C   0  0  0  0  0  0  0  0  0  0  0  0
   44.4506  -25.4152 -106.1837 O   0  0  0  0  0  0  0  0  0  0  0  0
   45.3901  -26.9403 -103.1687 C   0  0  0  0  0  0  0  0  0  0  0  0
   44.7517  -28.2523 -102.7352 C   0  0  0  0  0  0  0  0  0  0  0  0
   45.7221  -29.7287 -103.2268 S   0  0  2  0  0  0  0  0  0  0  0  0
   44.6623  -31.1308 -102.7467 C   0  0  0  0  0  0  0  0  0  0  0  0
   46.8154  -29.7028 -101.8081 C   0  0  0  0  0  0  0  0  0  0  0  0
   48.1403  -30.3753 -102.0518 C   0  0  1  0  0  0  0  0  0  0  0  0
   48.7055  -29.8156 -103.2494 O   0  0  0  0  0  0  0  0  0  0  0  0
   48.9644  -29.8850 -100.9302 C   0  0  1  0  0  0  0  0  0  0  0  0
   48.9816  -30.8581  -99.8870 O   0  0  0  0  0  0  0  0  0  0  0  0
   50.3228  -29.7767 -101.5507 C   0  0  1  0  0  0  0  0  0  0  0  0
   51.0200  -31.0361 -101.4552 O   0  0  0  0  0  0  0  0  0  0  0  0
   50.0848  -29.4165 -103.0479 C   0  0  2  0  0  0  0  0  0  0  0  0
   43.2188  -26.5993 -104.9513 O   0  0  0  0  0  0  0  0  0  0  0  0
   49.3228  -25.5613 -106.6193 N   0  0  0  0  0  0  0  0  0  0  0  0
   49.1250  -26.8924 -106.7835 C   0  0  0  0  0  0  0  0  0  0  0  0
   49.3176  -27.7683 -105.7752 N   0  0  0  0  0  0  0  0  0  0  0  0
   49.8005  -27.3553 -104.5921 C   0  0  0  0  0  0  0  0  0  0  0  0
   50.0646  -25.9515 -104.3865 C   0  0  0  0  0  0  0  0  0  0  0  0
   49.7944  -25.0529 -105.4612 C   0  0  0  0  0  0  0  0  0  0  0  0
   50.0148  -23.6969 -105.3294 N   0  0  0  0  0  0  0  0  0  0  0  0
   50.5375  -25.8130 -103.1424 N   0  0  0  0  0  0  0  0  0  0  0  0
   50.5950  -26.9833 -102.5799 C   0  0  0  0  0  0  0  0  0  0  0  0
   50.1463  -27.9735 -103.4224 N   0  0  0  0  0  0  0  0  0  0  0  0
  2  1  1  1  0  0  0
  2  3  1  0  0  0  0
  2  5  1  0  0  0  0
  3  4  1  0  0  0  0
  3 17  1  0  0  0  0
  5  6  1  0  0  0  0
  7  6  1  1  0  0  0
  7  8  1  0  0  0  0
  7  9  1  0  0  0  0
 10  9  1  1  0  0  0
 10 11  1  0  0  0  0
 10 12  1  0  0  0  0
 11 16  1  0  0  0  0
 12 13  1  1  0  0  0
 12 14  1  0  0  0  0
 14 15  1  6  0  0  0
 14 16  1  0  0  0  0
 16 27  1  1  0  0  0
 18 19  2  0  0  0  0
 18 23  1  0  0  0  0
 19 20  1  0  0  0  0
 20 21  2  0  0  0  0
 21 22  1  0  0  0  0
 21 27  1  0  0  0  0
 22 23  2  0  0  0  0
 22 25  1  0  0  0  0
 23 24  1  0  0  0  0
 25 26  2  0  0  0  0
 26 27  1  0  0  0  0
M  END
>  <CHROM.1>
13.50289802,-147.69220260,58.98239651,-174.33104479,-155.47227428,51.89754966
-56.41801609,47.85147251,-27.96968484,-103.65091668,-2.01558202,0.11062684
2.46691137

>  <Name>
ligand

>  <RI>
0

>  <Rbt.Current_Directory>
/home/itssahil/PROJECTS/Mol_Feturizer/New_Systems/rnas/4L81

>  <Rbt.Executable>
rbdock ($Id: //depot/dev/client3/rdock/2013.1/src/exe/rbdock.cxx#4 $)

>  <Rbt.Library>
libRbt.so (2013.1, Build901 2013/11/27)

>  <Rbt.Parameter_File>
/export/apps/rDock/src/rDock_2013.1_src/data/scripts/dock_solv.prm

>  <Rbt.Receptor>
prm/pocket_docking_2.prm

>  <SCORE>
-9.10442

>  <SCORE.INTER>
-11.3464

>  <SCORE.INTER.CONST>
1

>  <SCORE.INTER.POLAR>
0

>  <SCORE.INTER.ROT>
7

>  <SCORE.INTER.SOLV>
6.2743

>  <SCORE.INTER.VDW>
-17.9224

>  <SCORE.INTER.norm>
-0.420236

>  <SCORE.INTRA>
0.112349

>  <SCORE.INTRA.DIHEDRAL>
1.45111

>  <SCORE.INTRA.DIHEDRAL.0>
8.34559

>  <SCORE.INTRA.POLAR>
0

>  <SCORE.INTRA.POLAR.0>
0

>  <SCORE.INTRA.REPUL>
0

>  <SCORE.INTRA.REPUL.0>
0

>  <SCORE.INTRA.SOLV>
2.35827

>  <SCORE.INTRA.SOLV.lig_0>
-48.829

>  <SCORE.INTRA.VDW>
-1.79234

>  <SCORE.INTRA.VDW.0>
-1.77092

>  <SCORE.INTRA.norm>
0.00416106

>  <SCORE.RESTR>
2.1296

>  <SCORE.RESTR.CAVITY>
2.1296

>  <SCORE.RESTR.norm>
0.0788742

>  <SCORE.SYSTEM>
0

>  <SCORE.SYSTEM.CONST>
0

>  <SCORE.SYSTEM.DIHEDRAL>
0

>  <SCORE.SYSTEM.SOLV>
0

>  <SCORE.SYSTEM.norm>
0

>  <SCORE.heavy>
27

>  <SCORE.norm>
-0.337201

>  <RMSD>
4.970

$$$$
ligand
 OpenBabel11021811503D
libRbt.so/2013.1/901 2013/11/27
 27 29  0  0  0  0  0  0  0  0999 V2000
   46.7409  -26.1949 -103.6355 N   0  0  0  0  0  0  0  0  0  0  0  0
   46.2839  -27.5811 -103.4859 C   0  0  2  0  0  0  0  0  0  0  0  0
   44.8103  -27.6666 -103.8235 C   0  0  0  0  0  0  0  0  0  0  0  0
   44.3307  -28.7181 -104.2199 O   0  0  0  0  0  0  0  0  0  0  0  0
   46.4945  -28.0875 -102.0525 C   0  0  0  0  0  0  0  0  0  0  0  0
   46.2132  -29.5805 -101.9590 C   0  0  0  0  0  0  0  0  0  0  0  0
   46.5925  -30.2884 -100.3102 S   0  0  2  0  0  0  0  0  0  0  0  0
   46.0980  -28.9778  -99.1452 C   0  0  0  0  0  0  0  0  0  0  0  0
   48.3519  -29.9583 -100.3759 C   0  0  0  0  0  0  0  0  0  0  0  0
   49.1243  -30.9520 -101.2022 C   0  0  1  0  0  0  0  0  0  0  0  0
   48.7103  -30.8041 -102.5710 O   0  0  0  0  0  0  0  0  0  0  0  0
   50.5047  -30.4362 -101.1235 C   0  0  1  0  0  0  0  0  0  0  0  0
   51.2234  -31.1429 -100.1137 O   0  0  0  0  0  0  0  0  0  0  0  0
   51.0539  -30.7760 -102.4744 C   0  0  1  0  0  0  0  0  0  0  0  0
   51.5994  -32.1116 -102.4730 O   0  0  0  0  0  0  0  0  0  0  0  0
   49.8502  -30.6976 -103.4607 C   0  0  2  0  0  0  0  0  0  0  0  0
   44.0856  -26.6989 -103.6713 O   0  0  0  0  0  0  0  0  0  0  0  0
   50.6283  -25.4615 -103.8803 N   0  0  0  0  0  0  0  0  0  0  0  0
   51.0159  -26.2774 -102.8694 C   0  0  0  0  0  0  0  0  0  0  0  0
   50.7912  -27.6076 -102.9048 N   0  0  0  0  0  0  0  0  0  0  0  0
   50.0920  -28.1573 -103.9109 C   0  0  0  0  0  0  0  0  0  0  0  0
   49.6241  -27.3192 -104.9885 C   0  0  0  0  0  0  0  0  0  0  0  0
   49.9316  -25.9270 -104.9386 C   0  0  0  0  0  0  0  0  0  0  0  0
   49.5234  -25.0702 -105.9405 N   0  0  0  0  0  0  0  0  0  0  0  0
   48.9606  -28.1047 -105.8451 N   0  0  0  0  0  0  0  0  0  0  0  0
   48.9712  -29.3239 -105.3947 C   0  0  0  0  0  0  0  0  0  0  0  0
   49.6606  -29.4204 -104.2085 N   0  0  0  0  0  0  0  0  0  0  0  0
  2  1  1  1  0  0  0
  2  3  1  0  0  0  0
  2  5  1  0  0  0  0
  3  4  1  0  0  0  0
  3 17  1  0  0  0  0
  5  6  1  0  0  0  0
  7  6  1  6  0  0  0
  7  8  1  0  0  0  0
  7  9  1  0  0  0  0
 10  9  1  1  0  0  0
 10 11  1  0  0  0  0
 10 12  1  0  0  0  0
 11 16  1  0  0  0  0
 12 13  1  1  0  0  0
 12 14  1  0  0  0  0
 14 15  1  1  0  0  0
 14 16  1  0  0  0  0
 16 27  1  1  0  0  0
 18 19  2  0  0  0  0
 18 23  1  0  0  0  0
 19 20  1  0  0  0  0
 20 21  2  0  0  0  0
 21 22  1  0  0  0  0
 21 27  1  0  0  0  0
 22 23  2  0  0  0  0
 22 25  1  0  0  0  0
 23 24  1  0  0  0  0
 25 26  2  0  0  0  0
 26 27  1  0  0  0  0
M  END
>  <CHROM.1>
154.33905429,-171.55109150,174.69644927,37.03582519,-79.09167909,66.13787687
90.67534648,48.42706659,-28.76978213,-102.82221412,2.09782445,0.20044399
-0.75903671

>  <Name>
ligand

>  <RI>
0

>  <Rbt.Current_Directory>
/home/itssahil/PROJECTS/Mol_Feturizer/New_Systems/rnas/4L81

>  <Rbt.Executable>
rbdock ($Id: //depot/dev/client3/rdock/2013.1/src/exe/rbdock.cxx#4 $)

>  <Rbt.Library>
libRbt.so (2013.1, Build901 2013/11/27)

>  <Rbt.Parameter_File>
/export/apps/rDock/src/rDock_2013.1_src/data/scripts/dock_solv.prm

>  <Rbt.Receptor>
prm/pocket_docking_4.prm

>  <SCORE>
-18.6355

>  <SCORE.INTER>
-15.9452

>  <SCORE.INTER.CONST>
1

>  <SCORE.INTER.POLAR>
0

>  <SCORE.INTER.ROT>
7

>  <SCORE.INTER.SOLV>
10.7868

>  <SCORE.INTER.VDW>
-22.4924

>  <SCORE.INTER.norm>
-0.590565

>  <SCORE.INTRA>
-2.69024

>  <SCORE.INTRA.DIHEDRAL>
-3.72723

>  <SCORE.INTRA.DIHEDRAL.0>
8.34559

>  <SCORE.INTRA.POLAR>
0

>  <SCORE.INTRA.POLAR.0>
0

>  <SCORE.INTRA.REPUL>
0

>  <SCORE.INTRA.REPUL.0>
0

>  <SCORE.INTRA.SOLV>
0.959316

>  <SCORE.INTRA.SOLV.lig_0>
-48.829

>  <SCORE.INTRA.VDW>
-1.30628

>  <SCORE.INTRA.VDW.0>
-1.77092

>  <SCORE.INTRA.norm>
-0.0996385

>  <SCORE.RESTR>
0

>  <SCORE.RESTR.CAVITY>
0

>  <SCORE.RESTR.norm>
0

>  <SCORE.SYSTEM>
0

>  <SCORE.SYSTEM.CONST>
0

>  <SCORE.SYSTEM.DIHEDRAL>
0

>  <SCORE.SYSTEM.SOLV>
0

>  <SCORE.SYSTEM.norm>
0

>  <SCORE.heavy>
27

>  <SCORE.norm>
-0.690203

>  <RMSD>
4.970

$$$$
ligand
 OpenBabel11021811503D
libRbt.so/2013.1/901 2013/11/27
 27 29  0  0  0  0  0  0  0  0999 V2000
   44.8774  -26.6686 -102.7326 N   0  0  0  0  0  0  0  0  0  0  0  0
   45.4154  -26.9749 -104.0629 C   0  0  2  0  0  0  0  0  0  0  0  0
   44.5011  -26.3975 -105.1228 C   0  0  0  0  0  0  0  0  0  0  0  0
   44.9676  -25.7669 -106.0595 O   0  0  0  0  0  0  0  0  0  0  0  0
   45.5349  -28.4892 -104.2824 C   0  0  0  0  0  0  0  0  0  0  0  0
   44.3090  -29.2127 -103.7434 C   0  0  0  0  0  0  0  0  0  0  0  0
   44.7079  -30.8031 -102.9219 S   0  0  2  0  0  0  0  0  0  0  0  0
   43.1386  -31.2995 -102.1406 C   0  0  0  0  0  0  0  0  0  0  0  0
   45.5123  -30.0708 -101.4987 C   0  0  0  0  0  0  0  0  0  0  0  0
   46.9577  -30.4654 -101.3501 C   0  0  1  0  0  0  0  0  0  0  0  0
   47.6762  -29.9427 -102.4802 O   0  0  0  0  0  0  0  0  0  0  0  0
   47.3898  -29.6794 -100.1783 C   0  0  1  0  0  0  0  0  0  0  0  0
   47.3394  -30.4953  -99.0090 O   0  0  0  0  0  0  0  0  0  0  0  0
   48.8125  -29.3547 -100.5141 C   0  0  1  0  0  0  0  0  0  0  0  0
   49.6868  -30.4135 -100.0715 O   0  0  0  0  0  0  0  0  0  0  0  0
   48.8717  -29.2343 -102.0665 C   0  0  2  0  0  0  0  0  0  0  0  0
   43.2982  -26.5849 -105.0684 O   0  0  0  0  0  0  0  0  0  0  0  0
   50.1883  -25.7129 -105.8168 N   0  0  0  0  0  0  0  0  0  0  0  0
   50.6421  -26.9829 -105.6781 C   0  0  0  0  0  0  0  0  0  0  0  0
   50.1927  -27.7942 -104.6979 N   0  0  0  0  0  0  0  0  0  0  0  0
   49.3395  -27.3363 -103.7673 C   0  0  0  0  0  0  0  0  0  0  0  0
   48.8619  -25.9772 -103.8525 C   0  0  0  0  0  0  0  0  0  0  0  0
   49.3201  -25.1711 -104.9367 C   0  0  0  0  0  0  0  0  0  0  0  0
   48.8959  -23.8660 -105.0839 N   0  0  0  0  0  0  0  0  0  0  0  0
   48.0404  -25.7777 -102.8151 N   0  0  0  0  0  0  0  0  0  0  0  0
   47.9790  -26.8677 -102.1097 C   0  0  0  0  0  0  0  0  0  0  0  0
   48.7534  -27.8668 -102.6515 N   0  0  0  0  0  0  0  0  0  0  0  0
  2  1  1  1  0  0  0
  2  3  1  0  0  0  0
  2  5  1  0  0  0  0
  3  4  1  0  0  0  0
  3 17  1  0  0  0  0
  5  6  1  0  0  0  0
  7  6  1  6  0  0  0
  7  8  1  0  0  0  0
  7  9  1  0  0  0  0
 10  9  1  6  0  0  0
 10 11  1  0  0  0  0
 10 12  1  0  0  0  0
 11 16  1  0  0  0  0
 12 13  1  1  0  0  0
 12 14  1  0  0  0  0
 14 15  1  6  0  0  0
 14 16  1  0  0  0  0
 16 27  1  1  0  0  0
 18 19  2  0  0  0  0
 18 23  1  0  0  0  0
 19 20  1  0  0  0  0
 20 21  2  0  0  0  0
 21 22  1  0  0  0  0
 21 27  1  0  0  0  0
 22 23  2  0  0  0  0
 22 25  1  0  0  0  0
 23 24  1  0  0  0  0
 25 26  2  0  0  0  0
 26 27  1  0  0  0  0
M  END
>  <CHROM.1>
133.36759057,42.02411477,-141.07874698,170.73758953,-118.91578103,64.50679146
-100.65712075,47.04560114,-28.15932534,-103.09465605,2.00825863,0.23027954
2.38993486

>  <Name>
ligand

>  <RI>
0

>  <Rbt.Current_Directory>
/home/itssahil/PROJECTS/Mol_Feturizer/New_Systems/rnas/4L81

>  <Rbt.Executable>
rbdock ($Id: //depot/dev/client3/rdock/2013.1/src/exe/rbdock.cxx#4 $)

>  <Rbt.Library>
libRbt.so (2013.1, Build901 2013/11/27)

>  <Rbt.Parameter_File>
/export/apps/rDock/src/rDock_2013.1_src/data/scripts/dock_solv.prm

>  <Rbt.Receptor>
prm/pocket_docking_4.prm

>  <SCORE>
-14.3717

>  <SCORE.INTER>
-14.9561

>  <SCORE.INTER.CONST>
1

>  <SCORE.INTER.POLAR>
0

>  <SCORE.INTER.ROT>
7

>  <SCORE.INTER.SOLV>
13.6122

>  <SCORE.INTER.VDW>
-22.7748

>  <SCORE.INTER.norm>
-0.55393

>  <SCORE.INTRA>
0.554859

>  <SCORE.INTRA.DIHEDRAL>
4.39998

>  <SCORE.INTRA.DIHEDRAL.0>
8.34559

>  <SCORE.INTRA.POLAR>
0

>  <SCORE.INTRA.POLAR.0>
0

>  <SCORE.INTRA.REPUL>
0

>  <SCORE.INTRA.REPUL.0>
0

>  <SCORE.INTRA.SOLV>
1.63084

>  <SCORE.INTRA.SOLV.lig_0>
-48.829

>  <SCORE.INTRA.VDW>
-2.46055

>  <SCORE.INTRA.VDW.0>
-1.77092

>  <SCORE.INTRA.norm>
0.0205503

>  <SCORE.RESTR>
0.0295416

>  <SCORE.RESTR.CAVITY>
0.0295416

>  <SCORE.RESTR.norm>
0.00109413

>  <SCORE.SYSTEM>
0

>  <SCORE.SYSTEM.CONST>
0

>  <SCORE.SYSTEM.DIHEDRAL>
0

>  <SCORE.SYSTEM.SOLV>
0

>  <SCORE.SYSTEM.norm>
0

>  <SCORE.heavy>
27

>  <SCORE.norm>
-0.532286

>  <RMSD>
4.973

$$$$
ligand
 OpenBabel11021811503D
libRbt.so/2013.1/901 2013/11/27
 27 29  0  0  0  0  0  0  0  0999 V2000
   45.1965  -29.6075 -104.6006 N   0  0  0  0  0  0  0  0  0  0  0  0
   44.6172  -28.8518 -103.4844 C   0  0  2  0  0  0  0  0  0  0  0  0
   45.2272  -27.4666 -103.4414 C   0  0  0  0  0  0  0  0  0  0  0  0
   44.5974  -26.5322 -102.9693 O   0  0  0  0  0  0  0  0  0  0  0  0
   44.8767  -29.5499 -102.1425 C   0  0  0  0  0  0  0  0  0  0  0  0
   46.3703  -29.6861 -101.8831 C   0  0  0  0  0  0  0  0  0  0  0  0
   46.7597  -30.3701 -100.2266 S   0  0  2  0  0  0  0  0  0  0  0  0
   46.2839  -29.0379  -99.0784 C   0  0  0  0  0  0  0  0  0  0  0  0
   48.5205  -30.0525 -100.3130 C   0  0  0  0  0  0  0  0  0  0  0  0
   49.2670  -31.0147 -101.1983 C   0  0  1  0  0  0  0  0  0  0  0  0
   48.7572  -30.8710 -102.5348 O   0  0  0  0  0  0  0  0  0  0  0  0
   50.6323  -30.4548 -101.2077 C   0  0  1  0  0  0  0  0  0  0  0  0
   51.4396  -31.1446 -100.2549 O   0  0  0  0  0  0  0  0  0  0  0  0
   51.0999  -30.7672 -102.5955 C   0  0  1  0  0  0  0  0  0  0  0  0
   51.6868  -32.0842 -102.6428 O   0  0  0  0  0  0  0  0  0  0  0  0
   49.8305  -30.7213 -103.4980 C   0  0  2  0  0  0  0  0  0  0  0  0
   46.3613  -27.2794 -103.8459 O   0  0  0  0  0  0  0  0  0  0  0  0
   50.1942  -25.4315 -103.7873 N   0  0  0  0  0  0  0  0  0  0  0  0
   50.6315  -26.2377 -102.7890 C   0  0  0  0  0  0  0  0  0  0  0  0
   50.5142  -27.5803 -102.8579 N   0  0  0  0  0  0  0  0  0  0  0  0
   49.8751  -28.1599 -103.8871 C   0  0  0  0  0  0  0  0  0  0  0  0
   49.3569  -27.3363 -104.9528 C   0  0  0  0  0  0  0  0  0  0  0  0
   49.5517  -25.9257 -104.8667 C   0  0  0  0  0  0  0  0  0  0  0  0
   49.0905  -25.0805 -105.8555 N   0  0  0  0  0  0  0  0  0  0  0  0
   48.7703  -28.1515 -105.8372 N   0  0  0  0  0  0  0  0  0  0  0  0
   48.8718  -29.3763 -105.4142 C   0  0  0  0  0  0  0  0  0  0  0  0
   49.5501  -29.4459 -104.2198 N   0  0  0  0  0  0  0  0  0  0  0  0
  2  1  1  6  0  0  0
  2  3  1  0  0  0  0
  2  5  1  0  0  0  0
  3  4  1  0  0  0  0
  3 17  1  0  0  0  0
  5  6  1  0  0  0  0
  7  6  1  6  0  0  0
  7  8  1  0  0  0  0
  7  9  1  0  0  0  0
 10  9  1  1  0  0  0
 10 11  1  0  0  0  0
 10 12  1  0  0  0  0
 11 16  1  0  0  0  0
 12 13  1  1  0  0  0
 12 14  1  0  0  0  0
 14 15  1  1  0  0  0
 14 16  1  0  0  0  0
 16 27  1  1  0  0  0
 18 19  2  0  0  0  0
 18 23  1  0  0  0  0
 19 20  1  0  0  0  0
 20 21  2  0  0  0  0
 21 22  1  0  0  0  0
 21 27  1  0  0  0  0
 22 23  2  0  0  0  0
 22 25  1  0  0  0  0
 23 24  1  0  0  0  0
 25 26  2  0  0  0  0
 26 27  1  0  0  0  0
M  END
>  <CHROM.1>
152.63891267,60.13484146,174.62923092,-69.66989115,-75.55103798,61.96433251
85.17263222,48.33851429,-28.93816129,-102.79509268,2.09791914,0.18599654
-0.76211934

>  <Name>
ligand

>  <RI>
0

>  <Rbt.Current_Directory>
/home/itssahil/PROJECTS/Mol_Feturizer/New_Systems/rnas/4L81

>  <Rbt.Executable>
rbdock ($Id: //depot/dev/client3/rdock/2013.1/src/exe/rbdock.cxx#4 $)

>  <Rbt.Library>
libRbt.so (2013.1, Build901 2013/11/27)

>  <Rbt.Parameter_File>
/export/apps/rDock/src/rDock_2013.1_src/data/scripts/dock_solv.prm

>  <Rbt.Receptor>
prm/pocket_docking_3.prm

>  <SCORE>
-20.4222

>  <SCORE.INTER>
-16.3199

>  <SCORE.INTER.CONST>
1

>  <SCORE.INTER.POLAR>
0

>  <SCORE.INTER.ROT>
7

>  <SCORE.INTER.SOLV>
8.5324

>  <SCORE.INTER.VDW>
-21.9907

>  <SCORE.INTER.norm>
-0.604441

>  <SCORE.INTRA>
-4.10228

>  <SCORE.INTRA.DIHEDRAL>
-4.82797

>  <SCORE.INTRA.DIHEDRAL.0>
8.34559

>  <SCORE.INTRA.POLAR>
0

>  <SCORE.INTRA.POLAR.0>
0

>  <SCORE.INTRA.REPUL>
0

>  <SCORE.INTRA.REPUL.0>
0

>  <SCORE.INTRA.SOLV>
-0.345672

>  <SCORE.INTRA.SOLV.lig_0>
-48.829

>  <SCORE.INTRA.VDW>
-1.51546

>  <SCORE.INTRA.VDW.0>
-1.77092

>  <SCORE.INTRA.norm>
-0.151936

>  <SCORE.RESTR>
0

>  <SCORE.RESTR.CAVITY>
0

>  <SCORE.RESTR.norm>
0

>  <SCORE.SYSTEM>
0

>  <SCORE.SYSTEM.CONST>
0

>  <SCORE.SYSTEM.DIHEDRAL>
0

>  <SCORE.SYSTEM.SOLV>
0

>  <SCORE.SYSTEM.norm>
0

>  <SCORE.heavy>
27

>  <SCORE.norm>
-0.756377

>  <RMSD>
4.976

$$$$
ligand
 OpenBabel11021811503D
libRbt.so/2013.1/901 2013/11/27
 27 29  0  0  0  0  0  0  0  0999 V2000
   50.5708  -27.0994 -102.7426 N   0  0  0  0  0  0  0  0  0  0  0  0
   50.1423  -27.6972 -104.0121 C   0  0  2  0  0  0  0  0  0  0  0  0
   49.6105  -26.6139 -104.9266 C   0  0  0  0  0  0  0  0  0  0  0  0
   49.4182  -26.8485 -106.1102 O   0  0  0  0  0  0  0  0  0  0  0  0
   49.0428  -28.7454 -103.7934 C   0  0  0  0  0  0  0  0  0  0  0  0
   47.8640  -28.1445 -103.0409 C   0  0  0  0  0  0  0  0  0  0  0  0
   46.2365  -28.6657 -103.7065 S   0  0  2  0  0  0  0  0  0  0  0  0
   45.8006  -27.3456 -104.8841 C   0  0  0  0  0  0  0  0  0  0  0  0
   45.2821  -28.1115 -102.2956 C   0  0  0  0  0  0  0  0  0  0  0  0
   45.3177  -29.0625 -101.1289 C   0  0  1  0  0  0  0  0  0  0  0  0
   45.5142  -30.3892 -101.6468 O   0  0  0  0  0  0  0  0  0  0  0  0
   46.5706  -28.6897 -100.4442 C   0  0  1  0  0  0  0  0  0  0  0  0
   46.2800  -27.8120  -99.3576 O   0  0  0  0  0  0  0  0  0  0  0  0
   47.0574  -30.0060  -99.9221 C   0  0  1  0  0  0  0  0  0  0  0  0
   46.4815  -30.2762  -98.6272 O   0  0  0  0  0  0  0  0  0  0  0  0
   46.5806  -31.0785 -100.9470 C   0  0  2  0  0  0  0  0  0  0  0  0
   49.3391  -25.5114 -104.4840 O   0  0  0  0  0  0  0  0  0  0  0  0
   51.5658  -32.1282 -102.4452 N   0  0  0  0  0  0  0  0  0  0  0  0
   51.1399  -31.6931 -101.2339 C   0  0  0  0  0  0  0  0  0  0  0  0
   49.8306  -31.5034 -100.9679 N   0  0  0  0  0  0  0  0  0  0  0  0
   48.9071  -31.6564 -101.9308 C   0  0  0  0  0  0  0  0  0  0  0  0
   49.3204  -32.0788 -103.2473 C   0  0  0  0  0  0  0  0  0  0  0  0
   50.7085  -32.3216 -103.4697 C   0  0  0  0  0  0  0  0  0  0  0  0
   51.1714  -32.7370 -104.7018 N   0  0  0  0  0  0  0  0  0  0  0  0
   48.2211  -32.1474 -104.0074 N   0  0  0  0  0  0  0  0  0  0  0  0
   47.1916  -31.8032 -103.2925 C   0  0  0  0  0  0  0  0  0  0  0  0
   47.5508  -31.4965 -102.0008 N   0  0  0  0  0  0  0  0  0  0  0  0
  2  1  1  1  0  0  0
  2  3  1  0  0  0  0
  2  5  1  0  0  0  0
  3  4  1  0  0  0  0
  3 17  1  0  0  0  0
  5  6  1  0  0  0  0
  7  6  1  1  0  0  0
  7  8  1  0  0  0  0
  7  9  1  0  0  0  0
 10  9  1  6  0  0  0
 10 11  1  0  0  0  0
 10 12  1  0  0  0  0
 11 16  1  0  0  0  0
 12 13  1  1  0  0  0
 12 14  1  0  0  0  0
 14 15  1  1  0  0  0
 14 16  1  0  0  0  0
 16 27  1  6  0  0  0
 18 19  2  0  0  0  0
 18 23  1  0  0  0  0
 19 20  1  0  0  0  0
 20 21  2  0  0  0  0
 21 22  1  0  0  0  0
 21 27  1  0  0  0  0
 22 23  2  0  0  0  0
 22 25  1  0  0  0  0
 23 24  1  0  0  0  0
 25 26  2  0  0  0  0
 26 27  1  0  0  0  0
M  END
>  <CHROM.1>
167.20731877,55.58855461,137.95179656,-93.63270332,-79.72240836,-28.51539184
149.48893987,48.10396780,-29.56236817,-102.61699148,-2.00505852,-0.61304201
2.54888797

>  <Name>
ligand

>  <RI>
0

>  <Rbt.Current_Directory>
/home/itssahil/PROJECTS/Mol_Feturizer/New_Systems/rnas/4L81

>  <Rbt.Executable>
rbdock ($Id: //depot/dev/client3/rdock/2013.1/src/exe/rbdock.cxx#4 $)

>  <Rbt.Library>
libRbt.so (2013.1, Build901 2013/11/27)

>  <Rbt.Parameter_File>
/export/apps/rDock/src/rDock_2013.1_src/data/scripts/dock_solv.prm

>  <Rbt.Receptor>
prm/pocket_docking_3.prm

>  <SCORE>
-3.81866

>  <SCORE.INTER>
-3.98864

>  <SCORE.INTER.CONST>
1

>  <SCORE.INTER.POLAR>
0

>  <SCORE.INTER.ROT>
7

>  <SCORE.INTER.SOLV>
18.0644

>  <SCORE.INTER.VDW>
-16.9472

>  <SCORE.INTER.norm>
-0.147727

>  <SCORE.INTRA>
-0.0322404

>  <SCORE.INTRA.DIHEDRAL>
3.97835

>  <SCORE.INTRA.DIHEDRAL.0>
8.34559

>  <SCORE.INTRA.POLAR>
0

>  <SCORE.INTRA.POLAR.0>
0

>  <SCORE.INTRA.REPUL>
0

>  <SCORE.INTRA.REPUL.0>
0

>  <SCORE.INTRA.SOLV>
-0.0773742

>  <SCORE.INTRA.SOLV.lig_0>
-48.829

>  <SCORE.INTRA.VDW>
-1.98273

>  <SCORE.INTRA.VDW.0>
-1.77092

>  <SCORE.INTRA.norm>
-0.00119409

>  <SCORE.RESTR>
0.202218

>  <SCORE.RESTR.CAVITY>
0.202218

>  <SCORE.RESTR.norm>
0.00748956

>  <SCORE.SYSTEM>
0

>  <SCORE.SYSTEM.CONST>
0

>  <SCORE.SYSTEM.DIHEDRAL>
0

>  <SCORE.SYSTEM.SOLV>
0

>  <SCORE.SYSTEM.norm>
0

>  <SCORE.heavy>
27

>  <SCORE.norm>
-0.141432

>  <RMSD>
4.980

$$$$
ligand
 OpenBabel11021811503D
libRbt.so/2013.1/901 2013/11/27
 27 29  0  0  0  0  0  0  0  0999 V2000
   50.3899  -24.0035 -104.8734 N   0  0  0  0  0  0  0  0  0  0  0  0
   50.7216  -25.4225 -104.7033 C   0  0  2  0  0  0  0  0  0  0  0  0
   50.1945  -26.2098 -105.8845 C   0  0  0  0  0  0  0  0  0  0  0  0
   49.6010  -25.6395 -106.7874 O   0  0  0  0  0  0  0  0  0  0  0  0
   50.1081  -25.9895 -103.4159 C   0  0  0  0  0  0  0  0  0  0  0  0
   48.6350  -25.6213 -103.3104 C   0  0  0  0  0  0  0  0  0  0  0  0
   47.5098  -27.0403 -103.6004 S   0  0  2  0  0  0  0  0  0  0  0  0
   45.8521  -26.2853 -103.6395 C   0  0  0  0  0  0  0  0  0  0  0  0
   47.5156  -27.6204 -101.9057 C   0  0  0  0  0  0  0  0  0  0  0  0
   46.3345  -28.4869 -101.5579 C   0  0  1  0  0  0  0  0  0  0  0  0
   46.2168  -29.4999 -102.5712 O   0  0  0  0  0  0  0  0  0  0  0  0
   46.7844  -29.1716 -100.3305 C   0  0  1  0  0  0  0  0  0  0  0  0
   46.2664  -28.4944  -99.1867 O   0  0  0  0  0  0  0  0  0  0  0  0
   46.1449  -30.5194 -100.4598 C   0  0  1  0  0  0  0  0  0  0  0  0
   44.8125  -30.4978  -99.9069 O   0  0  0  0  0  0  0  0  0  0  0  0
   46.0786  -30.8198 -101.9873 C   0  0  2  0  0  0  0  0  0  0  0  0
   50.3865  -27.4107 -105.9603 O   0  0  0  0  0  0  0  0  0  0  0  0
   51.2279  -31.4444 -103.1242 N   0  0  0  0  0  0  0  0  0  0  0  0
   50.6331  -30.3753 -102.5401 C   0  0  0  0  0  0  0  0  0  0  0  0
   49.3118  -30.3597 -102.2665 N   0  0  0  0  0  0  0  0  0  0  0  0
   48.5216  -31.3765 -102.6477 C   0  0  0  0  0  0  0  0  0  0  0  0
   49.1063  -32.5176 -103.3098 C   0  0  0  0  0  0  0  0  0  0  0  0
   50.5159  -32.5170 -103.5298 C   0  0  0  0  0  0  0  0  0  0  0  0
   51.1416  -33.5803 -104.1484 N   0  0  0  0  0  0  0  0  0  0  0  0
   48.1132  -33.3719 -103.5832 N   0  0  0  0  0  0  0  0  0  0  0  0
   46.9923  -32.8639 -103.1649 C   0  0  0  0  0  0  0  0  0  0  0  0
   47.1813  -31.6373 -102.5721 N   0  0  0  0  0  0  0  0  0  0  0  0
  2  1  1  6  0  0  0
  2  3  1  0  0  0  0
  2  5  1  0  0  0  0
  3  4  1  0  0  0  0
  3 17  1  0  0  0  0
  5  6  1  0  0  0  0
  7  6  1  1  0  0  0
  7  8  1  0  0  0  0
  7  9  1  0  0  0  0
 10  9  1  6  0  0  0
 10 11  1  0  0  0  0
 10 12  1  0  0  0  0
 11 16  1  0  0  0  0
 12 13  1  1  0  0  0
 12 14  1  0  0  0  0
 14 15  1  6  0  0  0
 14 16  1  0  0  0  0
 16 27  1  6  0  0  0
 18 19  2  0  0  0  0
 18 23  1  0  0  0  0
 19 20  1  0  0  0  0
 20 21  2  0  0  0  0
 21 22  1  0  0  0  0
 21 27  1  0  0  0  0
 22 23  2  0  0  0  0
 22 25  1  0  0  0  0
 23 24  1  0  0  0  0
 25 26  2  0  0  0  0
 26 27  1  0  0  0  0
M  END
>  <CHROM.1>
0.23660945,48.71781697,107.47534517,-172.63775034,158.95190638,49.79946398
51.18918244,48.29662542,-29.03225769,-103.02462878,1.19018545,0.67923691
-0.20787660

>  <Name>
ligand

>  <RI>
0

>  <Rbt.Current_Directory>
/home/itssahil/PROJECTS/Mol_Feturizer/New_Systems/rnas/4L81

>  <Rbt.Executable>
rbdock ($Id: //depot/dev/client3/rdock/2013.1/src/exe/rbdock.cxx#4 $)

>  <Rbt.Library>
libRbt.so (2013.1, Build901 2013/11/27)

>  <Rbt.Parameter_File>
/export/apps/rDock/src/rDock_2013.1_src/data/scripts/dock_solv.prm

>  <Rbt.Receptor>
prm/pocket_docking_3.prm

>  <SCORE>
-14.551

>  <SCORE.INTER>
-14.454

>  <SCORE.INTER.CONST>
1

>  <SCORE.INTER.POLAR>
0

>  <SCORE.INTER.ROT>
7

>  <SCORE.INTER.SOLV>
13.7128

>  <SCORE.INTER.VDW>
-22.4736

>  <SCORE.INTER.norm>
-0.535334

>  <SCORE.INTRA>
-0.0970109

>  <SCORE.INTRA.DIHEDRAL>
2.01145

>  <SCORE.INTRA.DIHEDRAL.0>
8.34559

>  <SCORE.INTRA.POLAR>
0

>  <SCORE.INTRA.POLAR.0>
0

>  <SCORE.INTRA.REPUL>
0

>  <SCORE.INTRA.REPUL.0>
0

>  <SCORE.INTRA.SOLV>
-0.19843

>  <SCORE.INTRA.SOLV.lig_0>
-48.829

>  <SCORE.INTRA.VDW>
-1.00352

>  <SCORE.INTRA.VDW.0>
-1.77092

>  <SCORE.INTRA.norm>
-0.003593

>  <SCORE.RESTR>
0

>  <SCORE.RESTR.CAVITY>
0

>  <SCORE.RESTR.norm>
0

>  <SCORE.SYSTEM>
0

>  <SCORE.SYSTEM.CONST>
0

>  <SCORE.SYSTEM.DIHEDRAL>
0

>  <SCORE.SYSTEM.SOLV>
0

>  <SCORE.SYSTEM.norm>
0

>  <SCORE.heavy>
27

>  <SCORE.norm>
-0.538927

>  <RMSD>
4.986

$$$$
ligand
 OpenBabel11021811503D
libRbt.so/2013.1/901 2013/11/27
 27 29  0  0  0  0  0  0  0  0999 V2000
   48.0312  -24.2627 -105.7053 N   0  0  0  0  0  0  0  0  0  0  0  0
   48.6807  -24.6893 -104.4608 C   0  0  2  0  0  0  0  0  0  0  0  0
   50.0852  -25.1682 -104.7623 C   0  0  0  0  0  0  0  0  0  0  0  0
   50.3860  -25.5161 -105.8942 O   0  0  0  0  0  0  0  0  0  0  0  0
   47.9029  -25.8273 -103.7860 C   0  0  0  0  0  0  0  0  0  0  0  0
   47.6541  -26.9670 -104.7637 C   0  0  0  0  0  0  0  0  0  0  0  0
   47.3187  -28.5703 -103.9389 S   0  0  2  0  0  0  0  0  0  0  0  0
   46.5502  -29.5832 -105.2440 C   0  0  0  0  0  0  0  0  0  0  0  0
   45.8358  -28.0279 -103.0930 C   0  0  0  0  0  0  0  0  0  0  0  0
   45.4040  -28.9443 -101.9792 C   0  0  1  0  0  0  0  0  0  0  0  0
   45.3940  -30.2874 -102.4917 O   0  0  0  0  0  0  0  0  0  0  0  0
   46.5358  -28.8639 -101.0356 C   0  0  1  0  0  0  0  0  0  0  0  0
   46.2329  -27.9273 -100.0028 O   0  0  0  0  0  0  0  0  0  0  0  0
   46.5844  -30.2498 -100.4708 C   0  0  1  0  0  0  0  0  0  0  0  0
   45.7019  -30.3600  -99.3348 O   0  0  0  0  0  0  0  0  0  0  0  0
   46.1003  -31.1962 -101.6100 C   0  0  2  0  0  0  0  0  0  0  0  0
   50.9341  -25.1791 -103.8881 O   0  0  0  0  0  0  0  0  0  0  0  0
   51.2222  -32.0752 -102.7017 N   0  0  0  0  0  0  0  0  0  0  0  0
   50.7074  -31.2847 -101.7281 C   0  0  0  0  0  0  0  0  0  0  0  0
   49.3769  -31.1798 -101.5283 N   0  0  0  0  0  0  0  0  0  0  0  0
   48.5105  -31.7919 -102.3518 C   0  0  0  0  0  0  0  0  0  0  0  0
   49.0146  -32.6110 -103.4277 C   0  0  0  0  0  0  0  0  0  0  0  0
   50.4285  -32.7387 -103.5688 C   0  0  0  0  0  0  0  0  0  0  0  0
   50.9781  -33.5140 -104.5696 N   0  0  0  0  0  0  0  0  0  0  0  0
   47.9569  -33.0934 -104.0906 N   0  0  0  0  0  0  0  0  0  0  0  0
   46.8705  -32.6458 -103.5350 C   0  0  0  0  0  0  0  0  0  0  0  0
   47.1477  -31.8436 -102.4527 N   0  0  0  0  0  0  0  0  0  0  0  0
  2  1  1  6  0  0  0
  2  3  1  0  0  0  0
  2  5  1  0  0  0  0
  3  4  1  0  0  0  0
  3 17  1  0  0  0  0
  5  6  1  0  0  0  0
  7  6  1  6  0  0  0
  7  8  1  0  0  0  0
  7  9  1  0  0  0  0
 10  9  1  6  0  0  0
 10 11  1  0  0  0  0
 10 12  1  0  0  0  0
 11 16  1  0  0  0  0
 12 13  1  1  0  0  0
 12 14  1  0  0  0  0
 14 15  1  1  0  0  0
 14 16  1  0  0  0  0
 16 27  1  6  0  0  0
 18 19  2  0  0  0  0
 18 23  1  0  0  0  0
 19 20  1  0  0  0  0
 20 21  2  0  0  0  0
 21 22  1  0  0  0  0
 21 27  1  0  0  0  0
 22 23  2  0  0  0  0
 22 25  1  0  0  0  0
 23 24  1  0  0  0  0
 25 26  2  0  0  0  0
 26 27  1  0  0  0  0
M  END
>  <CHROM.1>
-20.77270848,52.57344525,158.37878229,162.47396447,-164.40290367,-49.22835105
116.81141331,47.99109273,-29.30116003,-103.08970863,-1.44667648,-0.58619762
2.87555933

>  <Name>
ligand

>  <RI>
0

>  <Rbt.Current_Directory>
/home/itssahil/PROJECTS/Mol_Feturizer/New_Systems/rnas/4L81

>  <Rbt.Executable>
rbdock ($Id: //depot/dev/client3/rdock/2013.1/src/exe/rbdock.cxx#4 $)

>  <Rbt.Library>
libRbt.so (2013.1, Build901 2013/11/27)

>  <Rbt.Parameter_File>
/export/apps/rDock/src/rDock_2013.1_src/data/scripts/dock_solv.prm

>  <Rbt.Receptor>
prm/pocket_docking_3.prm

>  <SCORE>
-8.66682

>  <SCORE.INTER>
-7.06279

>  <SCORE.INTER.CONST>
1

>  <SCORE.INTER.POLAR>
0

>  <SCORE.INTER.ROT>
7

>  <SCORE.INTER.SOLV>
9.79566

>  <SCORE.INTER.VDW>
-16.2404

>  <SCORE.INTER.norm>
-0.261585

>  <SCORE.INTRA>
-1.60622

>  <SCORE.INTRA.DIHEDRAL>
-1.19153

>  <SCORE.INTRA.DIHEDRAL.0>
8.34559

>  <SCORE.INTRA.POLAR>
0

>  <SCORE.INTRA.POLAR.0>
0

>  <SCORE.INTRA.REPUL>
0

>  <SCORE.INTRA.REPUL.0>
0

>  <SCORE.INTRA.SOLV>
-0.222761

>  <SCORE.INTRA.SOLV.lig_0>
-48.829

>  <SCORE.INTRA.VDW>
-0.899075

>  <SCORE.INTRA.VDW.0>
-1.77092

>  <SCORE.INTRA.norm>
-0.0594895

>  <SCORE.RESTR>
0.00218139

>  <SCORE.RESTR.CAVITY>
0.00218139

>  <SCORE.RESTR.norm>
8.07922e-05

>  <SCORE.SYSTEM>
0

>  <SCORE.SYSTEM.CONST>
0

>  <SCORE.SYSTEM.DIHEDRAL>
0

>  <SCORE.SYSTEM.SOLV>
0

>  <SCORE.SYSTEM.norm>
0

>  <SCORE.heavy>
27

>  <SCORE.norm>
-0.320993

>  <RMSD>
5.002

$$$$
ligand
 OpenBabel11021811503D
libRbt.so/2013.1/901 2013/11/27
 27 29  0  0  0  0  0  0  0  0999 V2000
   44.5474  -27.3170 -103.2524 N   0  0  0  0  0  0  0  0  0  0  0  0
   45.0613  -27.8358 -104.5250 C   0  0  2  0  0  0  0  0  0  0  0  0
   44.6887  -26.8871 -105.6448 C   0  0  0  0  0  0  0  0  0  0  0  0
   44.0111  -25.8975 -105.4118 O   0  0  0  0  0  0  0  0  0  0  0  0
   44.4833  -29.2229 -104.8373 C   0  0  0  0  0  0  0  0  0  0  0  0
   44.9169  -30.2383 -103.7895 C   0  0  0  0  0  0  0  0  0  0  0  0
   46.7256  -30.5418 -103.7780 S   0  0  2  0  0  0  0  0  0  0  0  0
   46.9835  -31.7101 -105.1521 C   0  0  0  0  0  0  0  0  0  0  0  0
   46.7012  -31.7072 -102.4179 C   0  0  0  0  0  0  0  0  0  0  0  0
   47.0667  -31.0972 -101.0908 C   0  0  1  0  0  0  0  0  0  0  0  0
   48.4548  -30.7263 -101.1430 O   0  0  0  0  0  0  0  0  0  0  0  0
   46.2961  -29.8387 -101.0887 C   0  0  1  0  0  0  0  0  0  0  0  0
   45.0864  -30.0188 -100.3541 O   0  0  0  0  0  0  0  0  0  0  0  0
   47.2062  -28.9040 -100.3538 C   0  0  1  0  0  0  0  0  0  0  0  0
   46.9776  -28.9952  -98.9322 O   0  0  0  0  0  0  0  0  0  0  0  0
   48.6570  -29.3651 -100.6866 C   0  0  2  0  0  0  0  0  0  0  0  0
   45.0883  -27.0845 -106.7789 O   0  0  0  0  0  0  0  0  0  0  0  0
   49.4534  -24.9852 -103.5815 N   0  0  0  0  0  0  0  0  0  0  0  0
   48.5731  -25.1565 -102.5648 C   0  0  0  0  0  0  0  0  0  0  0  0
   48.4987  -26.3157 -101.8780 N   0  0  0  0  0  0  0  0  0  0  0  0
   49.2397  -27.3753 -102.2408 C   0  0  0  0  0  0  0  0  0  0  0  0
   50.1610  -27.2503 -103.3445 C   0  0  0  0  0  0  0  0  0  0  0  0
   50.2476  -25.9900 -104.0075 C   0  0  0  0  0  0  0  0  0  0  0  0
   51.1146  -25.7982 -105.0640 N   0  0  0  0  0  0  0  0  0  0  0  0
   50.7618  -28.4361 -103.4985 N   0  0  0  0  0  0  0  0  0  0  0  0
   50.2949  -29.2641 -102.6120 C   0  0  0  0  0  0  0  0  0  0  0  0
   49.3581  -28.6652 -101.8024 N   0  0  0  0  0  0  0  0  0  0  0  0
  2  1  1  1  0  0  0
  2  3  1  0  0  0  0
  2  5  1  0  0  0  0
  3  4  1  0  0  0  0
  3 17  1  0  0  0  0
  5  6  1  0  0  0  0
  7  6  1  6  0  0  0
  7  8  1  0  0  0  0
  7  9  1  0  0  0  0
 10  9  1  6  0  0  0
 10 11  1  0  0  0  0
 10 12  1  0  0  0  0
 11 16  1  0  0  0  0
 12 13  1  1  0  0  0
 12 14  1  0  0  0  0
 14 15  1  1  0  0  0
 14 16  1  0  0  0  0
 16 27  1  6  0  0  0
 18 19  2  0  0  0  0
 18 23  1  0  0  0  0
 19 20  1  0  0  0  0
 20 21  2  0  0  0  0
 21 22  1  0  0  0  0
 21 27  1  0  0  0  0
 22 23  2  0  0  0  0
 22 25  1  0  0  0  0
 23 24  1  0  0  0  0
 25 26  2  0  0  0  0
 26 27  1  0  0  0  0
M  END
>  <CHROM.1>
-2.70711448,-63.31893173,-64.92597063,-80.54740469,-98.71606415,-67.60021552
144.21171670,47.32224744,-28.53602427,-102.99366571,2.60627177,0.45437266
2.39636525

>  <Name>
ligand

>  <RI>
0

>  <Rbt.Current_Directory>
/home/itssahil/PROJECTS/Mol_Feturizer/New_Systems/rnas/4L81

>  <Rbt.Executable>
rbdock ($Id: //depot/dev/client3/rdock/2013.1/src/exe/rbdock.cxx#4 $)

>  <Rbt.Library>
libRbt.so (2013.1, Build901 2013/11/27)

>  <Rbt.Parameter_File>
/export/apps/rDock/src/rDock_2013.1_src/data/scripts/dock_solv.prm

>  <Rbt.Receptor>
prm/pocket_docking_2.prm

>  <SCORE>
-6.03288

>  <SCORE.INTER>
-7.43454

>  <SCORE.INTER.CONST>
1

>  <SCORE.INTER.POLAR>
0

>  <SCORE.INTER.ROT>
7

>  <SCORE.INTER.SOLV>
19.0335

>  <SCORE.INTER.VDW>
-19.5675

>  <SCORE.INTER.norm>
-0.275353

>  <SCORE.INTRA>
-0.110889

>  <SCORE.INTRA.DIHEDRAL>
-2.0467

>  <SCORE.INTRA.DIHEDRAL.0>
8.34559

>  <SCORE.INTRA.POLAR>
0

>  <SCORE.INTRA.POLAR.0>
0

>  <SCORE.INTRA.REPUL>
0

>  <SCORE.INTRA.REPUL.0>
0

>  <SCORE.INTRA.SOLV>
1.43342

>  <SCORE.INTRA.SOLV.lig_0>
-48.829

>  <SCORE.INTRA.VDW>
0.195751

>  <SCORE.INTRA.VDW.0>
-1.77092

>  <SCORE.INTRA.norm>
-0.00410698

>  <SCORE.RESTR>
1.51255

>  <SCORE.RESTR.CAVITY>
1.51255

>  <SCORE.RESTR.norm>
0.0560203

>  <SCORE.SYSTEM>
0

>  <SCORE.SYSTEM.CONST>
0

>  <SCORE.SYSTEM.DIHEDRAL>
0

>  <SCORE.SYSTEM.SOLV>
0

>  <SCORE.SYSTEM.norm>
0

>  <SCORE.heavy>
27

>  <SCORE.norm>
-0.22344

>  <RMSD>
5.013

$$$$
ligand
 OpenBabel11021811503D
libRbt.so/2013.1/901 2013/11/27
 27 29  0  0  0  0  0  0  0  0999 V2000
   45.4080  -29.8764 -104.3071 N   0  0  0  0  0  0  0  0  0  0  0  0
   44.9620  -28.8637 -103.3436 C   0  0  2  0  0  0  0  0  0  0  0  0
   45.0008  -27.4966 -103.9932 C   0  0  0  0  0  0  0  0  0  0  0  0
   45.2968  -27.3852 -105.1734 O   0  0  0  0  0  0  0  0  0  0  0  0
   45.8569  -28.8460 -102.0969 C   0  0  0  0  0  0  0  0  0  0  0  0
   45.9831  -30.2410 -101.5012 C   0  0  0  0  0  0  0  0  0  0  0  0
   46.9407  -30.2784  -99.9375 S   0  0  2  0  0  0  0  0  0  0  0  0
   46.3177  -28.8414  -99.0067 C   0  0  0  0  0  0  0  0  0  0  0  0
   48.4265  -29.5485 -100.6219 C   0  0  0  0  0  0  0  0  0  0  0  0
   49.0724  -30.3833 -101.6956 C   0  0  1  0  0  0  0  0  0  0  0  0
   48.6217  -29.8904 -102.9687 O   0  0  0  0  0  0  0  0  0  0  0  0
   50.4963  -30.0124 -101.5826 C   0  0  1  0  0  0  0  0  0  0  0  0
   51.1852  -30.9886 -100.8029 O   0  0  0  0  0  0  0  0  0  0  0  0
   50.9599  -30.0740 -103.0050 C   0  0  1  0  0  0  0  0  0  0  0  0
   51.3804  -31.4133 -103.3382 O   0  0  0  0  0  0  0  0  0  0  0  0
   49.7315  -29.6734 -103.8760 C   0  0  2  0  0  0  0  0  0  0  0  0
   44.7055  -26.5017 -103.3546 O   0  0  0  0  0  0  0  0  0  0  0  0
   48.3722  -24.6492 -102.8237 N   0  0  0  0  0  0  0  0  0  0  0  0
   48.2175  -25.7332 -102.0243 C   0  0  0  0  0  0  0  0  0  0  0  0
   48.6468  -26.9570 -102.3969 N   0  0  0  0  0  0  0  0  0  0  0  0
   49.1659  -27.1578 -103.6191 C   0  0  0  0  0  0  0  0  0  0  0  0
   49.3114  -26.0391 -104.5189 C   0  0  0  0  0  0  0  0  0  0  0  0
   48.8954  -24.7526 -104.0637 C   0  0  0  0  0  0  0  0  0  0  0  0
   49.0152  -23.6381 -104.8689 N   0  0  0  0  0  0  0  0  0  0  0  0
   49.8413  -26.5076 -105.6549 N   0  0  0  0  0  0  0  0  0  0  0  0
   50.0223  -27.7894 -105.5391 C   0  0  0  0  0  0  0  0  0  0  0  0
   49.6314  -28.2471 -104.3024 N   0  0  0  0  0  0  0  0  0  0  0  0
  2  1  1  6  0  0  0
  2  3  1  0  0  0  0
  2  5  1  0  0  0  0
  3  4  1  0  0  0  0
  3 17  1  0  0  0  0
  5  6  1  0  0  0  0
  7  6  1  6  0  0  0
  7  8  1  0  0  0  0
  7  9  1  0  0  0  0
 10  9  1  1  0  0  0
 10 11  1  0  0  0  0
 10 12  1  0  0  0  0
 11 16  1  0  0  0  0
 12 13  1  1  0  0  0
 12 14  1  0  0  0  0
 14 15  1  6  0  0  0
 14 16  1  0  0  0  0
 16 27  1  1  0  0  0
 18 19  2  0  0  0  0
 18 23  1  0  0  0  0
 19 20  1  0  0  0  0
 20 21  2  0  0  0  0
 21 22  1  0  0  0  0
 21 27  1  0  0  0  0
 22 23  2  0  0  0  0
 22 25  1  0  0  0  0
 23 24  1  0  0  0  0
 25 26  2  0  0  0  0
 26 27  1  0  0  0  0
M  END
>  <CHROM.1>
3.96720038,-52.46724879,-175.85113532,43.49615808,-63.07196919,96.22310790
31.81377387,48.12196786,-28.37032515,-102.80430752,1.44595197,-0.22877075
2.49961289

>  <Name>
ligand

>  <RI>
0

>  <Rbt.Current_Directory>
/home/itssahil/PROJECTS/Mol_Feturizer/New_Systems/rnas/4L81

>  <Rbt.Executable>
rbdock ($Id: //depot/dev/client3/rdock/2013.1/src/exe/rbdock.cxx#4 $)

>  <Rbt.Library>
libRbt.so (2013.1, Build901 2013/11/27)

>  <Rbt.Parameter_File>
/export/apps/rDock/src/rDock_2013.1_src/data/scripts/dock_solv.prm

>  <Rbt.Receptor>
prm/pocket_docking_3.prm

>  <SCORE>
-15.4881

>  <SCORE.INTER>
-14.1324

>  <SCORE.INTER.CONST>
1

>  <SCORE.INTER.POLAR>
0

>  <SCORE.INTER.ROT>
7

>  <SCORE.INTER.SOLV>
6.97758

>  <SCORE.INTER.VDW>
-20.0141

>  <SCORE.INTER.norm>
-0.523423

>  <SCORE.INTRA>
-1.35872

>  <SCORE.INTRA.DIHEDRAL>
-1.27162

>  <SCORE.INTRA.DIHEDRAL.0>
8.34559

>  <SCORE.INTRA.POLAR>
0

>  <SCORE.INTRA.POLAR.0>
0

>  <SCORE.INTRA.REPUL>
0

>  <SCORE.INTRA.REPUL.0>
0

>  <SCORE.INTRA.SOLV>
0.491434

>  <SCORE.INTRA.SOLV.lig_0>
-48.829

>  <SCORE.INTRA.VDW>
-0.968626

>  <SCORE.INTRA.VDW.0>
-1.77092

>  <SCORE.INTRA.norm>
-0.050323

>  <SCORE.RESTR>
0.00304111

>  <SCORE.RESTR.CAVITY>
0.00304111

>  <SCORE.RESTR.norm>
0.000112634

>  <SCORE.SYSTEM>
0

>  <SCORE.SYSTEM.CONST>
0

>  <SCORE.SYSTEM.DIHEDRAL>
0

>  <SCORE.SYSTEM.SOLV>
0

>  <SCORE.SYSTEM.norm>
0

>  <SCORE.heavy>
27

>  <SCORE.norm>
-0.573633

>  <RMSD>
5.013

$$$$
ligand
 OpenBabel11021811503D
libRbt.so/2013.1/901 2013/11/27
 27 29  0  0  0  0  0  0  0  0999 V2000
   45.4559  -30.6938 -100.9830 N   0  0  0  0  0  0  0  0  0  0  0  0
   44.5179  -29.8045 -101.6771 C   0  0  2  0  0  0  0  0  0  0  0  0
   43.2485  -30.5633 -102.0020 C   0  0  0  0  0  0  0  0  0  0  0  0
   42.8984  -31.5027 -101.3036 O   0  0  0  0  0  0  0  0  0  0  0  0
   45.1204  -29.2646 -102.9813 C   0  0  0  0  0  0  0  0  0  0  0  0
   44.4950  -27.9278 -103.3539 C   0  0  0  0  0  0  0  0  0  0  0  0
   44.7052  -27.4966 -105.1240 S   0  0  2  0  0  0  0  0  0  0  0  0
   44.3477  -29.0533 -106.0006 C   0  0  0  0  0  0  0  0  0  0  0  0
   46.4945  -27.5819 -105.1160 C   0  0  0  0  0  0  0  0  0  0  0  0
   47.1506  -26.4697 -104.3418 C   0  0  1  0  0  0  0  0  0  0  0  0
   47.1376  -26.8329 -102.9508 O   0  0  0  0  0  0  0  0  0  0  0  0
   48.5562  -26.5520 -104.7836 C   0  0  1  0  0  0  0  0  0  0  0  0
   48.7916  -25.5935 -105.8138 O   0  0  0  0  0  0  0  0  0  0  0  0
   49.3067  -26.1672 -103.5463 C   0  0  1  0  0  0  0  0  0  0  0  0
   49.4582  -24.7342 -103.4765 O   0  0  0  0  0  0  0  0  0  0  0  0
   48.4455  -26.6668 -102.3476 C   0  0  2  0  0  0  0  0  0  0  0  0
   42.5499  -30.2234 -102.9407 O   0  0  0  0  0  0  0  0  0  0  0  0
   51.5951  -30.9395 -102.1997 N   0  0  0  0  0  0  0  0  0  0  0  0
   51.6817  -29.8761 -103.0361 C   0  0  0  0  0  0  0  0  0  0  0  0
   50.8375  -28.8276 -102.9411 N   0  0  0  0  0  0  0  0  0  0  0  0
   49.8204  -28.8448 -102.0644 C   0  0  0  0  0  0  0  0  0  0  0  0
   49.6655  -29.9761 -101.1819 C   0  0  0  0  0  0  0  0  0  0  0  0
   50.6134  -31.0379 -101.2785 C   0  0  0  0  0  0  0  0  0  0  0  0
   50.5303  -32.1449 -100.4586 N   0  0  0  0  0  0  0  0  0  0  0  0
   48.5869  -29.7457 -100.4241 N   0  0  0  0  0  0  0  0  0  0  0  0
   48.0705  -28.6016 -100.7615 C   0  0  0  0  0  0  0  0  0  0  0  0
   48.7921  -27.9952 -101.7631 N   0  0  0  0  0  0  0  0  0  0  0  0
  2  1  1  6  0  0  0
  2  3  1  0  0  0  0
  2  5  1  0  0  0  0
  3  4  1  0  0  0  0
  3 17  1  0  0  0  0
  5  6  1  0  0  0  0
  7  6  1  1  0  0  0
  7  8  1  0  0  0  0
  7  9  1  0  0  0  0
 10  9  1  6  0  0  0
 10 11  1  0  0  0  0
 10 12  1  0  0  0  0
 11 16  1  0  0  0  0
 12 13  1  6  0  0  0
 12 14  1  0  0  0  0
 14 15  1  1  0  0  0
 14 16  1  0  0  0  0
 16 27  1  6  0  0  0
 18 19  2  0  0  0  0
 18 23  1  0  0  0  0
 19 20  1  0  0  0  0
 20 21  2  0  0  0  0
 21 22  1  0  0  0  0
 21 27  1  0  0  0  0
 22 23  2  0  0  0  0
 22 25  1  0  0  0  0
 23 24  1  0  0  0  0
 25 26  2  0  0  0  0
 26 27  1  0  0  0  0
M  END
>  <CHROM.1>
27.75365107,-153.84789408,-160.11729730,43.43238481,-69.93995949,82.33456445
117.58608504,47.29887762,-28.61506379,-102.92818123,3.08958794,-0.16602601
-0.65842295

>  <Name>
ligand

>  <RI>
0

>  <Rbt.Current_Directory>
/home/itssahil/PROJECTS/Mol_Feturizer/New_Systems/rnas/4L81

>  <Rbt.Executable>
rbdock ($Id: //depot/dev/client3/rdock/2013.1/src/exe/rbdock.cxx#4 $)

>  <Rbt.Library>
libRbt.so (2013.1, Build901 2013/11/27)

>  <Rbt.Parameter_File>
/export/apps/rDock/src/rDock_2013.1_src/data/scripts/dock_solv.prm

>  <Rbt.Receptor>
prm/pocket_docking_2.prm

>  <SCORE>
-5.06905

>  <SCORE.INTER>
-6.75823

>  <SCORE.INTER.CONST>
1

>  <SCORE.INTER.POLAR>
0

>  <SCORE.INTER.ROT>
7

>  <SCORE.INTER.SOLV>
20.4403

>  <SCORE.INTER.VDW>
-19.5856

>  <SCORE.INTER.norm>
-0.250305

>  <SCORE.INTRA>
0.349581

>  <SCORE.INTRA.DIHEDRAL>
0.279494

>  <SCORE.INTRA.DIHEDRAL.0>
8.34559

>  <SCORE.INTRA.POLAR>
0

>  <SCORE.INTRA.POLAR.0>
0

>  <SCORE.INTRA.REPUL>
0

>  <SCORE.INTRA.REPUL.0>
0

>  <SCORE.INTRA.SOLV>
-0.295022

>  <SCORE.INTRA.SOLV.lig_0>
-48.829

>  <SCORE.INTRA.VDW>
0.357345

>  <SCORE.INTRA.VDW.0>
-1.77092

>  <SCORE.INTRA.norm>
0.0129474

>  <SCORE.RESTR>
1.3396

>  <SCORE.RESTR.CAVITY>
1.3396

>  <SCORE.RESTR.norm>
0.0496149

>  <SCORE.SYSTEM>
0

>  <SCORE.SYSTEM.CONST>
0

>  <SCORE.SYSTEM.DIHEDRAL>
0

>  <SCORE.SYSTEM.SOLV>
0

>  <SCORE.SYSTEM.norm>
0

>  <SCORE.heavy>
27

>  <SCORE.norm>
-0.187743

>  <RMSD>
5.023

$$$$
ligand
 OpenBabel11021811503D
libRbt.so/2013.1/901 2013/11/27
 27 29  0  0  0  0  0  0  0  0999 V2000
   45.8042  -27.7723 -106.2620 N   0  0  0  0  0  0  0  0  0  0  0  0
   45.6023  -27.8692 -104.8120 C   0  0  2  0  0  0  0  0  0  0  0  0
   44.9911  -26.5820 -104.2999 C   0  0  0  0  0  0  0  0  0  0  0  0
   44.2717  -26.5936 -103.3124 O   0  0  0  0  0  0  0  0  0  0  0  0
   46.9276  -28.1153 -104.0782 C   0  0  0  0  0  0  0  0  0  0  0  0
   46.6872  -28.3684 -102.5967 C   0  0  0  0  0  0  0  0  0  0  0  0
   48.1839  -28.9437 -101.7066 S   0  0  2  0  0  0  0  0  0  0  0  0
   49.5122  -27.8705 -102.3420 C   0  0  0  0  0  0  0  0  0  0  0  0
   48.4635  -30.3801 -102.7397 C   0  0  0  0  0  0  0  0  0  0  0  0
   49.3595  -31.4137 -102.1106 C   0  0  1  0  0  0  0  0  0  0  0  0
   49.2567  -32.6187 -102.8879 O   0  0  0  0  0  0  0  0  0  0  0  0
   50.7082  -30.8684 -102.3586 C   0  0  1  0  0  0  0  0  0  0  0  0
   51.1654  -30.1751 -101.1985 O   0  0  0  0  0  0  0  0  0  0  0  0
   51.5235  -32.1066 -102.5686 C   0  0  1  0  0  0  0  0  0  0  0  0
   52.0067  -32.6096 -101.3057 O   0  0  0  0  0  0  0  0  0  0  0  0
   50.5649  -33.1479 -103.2205 C   0  0  2  0  0  0  0  0  0  0  0  0
   45.2379  -25.5216 -104.8472 O   0  0  0  0  0  0  0  0  0  0  0  0
   49.0356  -31.3763 -107.9871 N   0  0  0  0  0  0  0  0  0  0  0  0
   48.6761  -30.8961 -106.7713 C   0  0  0  0  0  0  0  0  0  0  0  0
   49.1726  -31.4140 -105.6284 N   0  0  0  0  0  0  0  0  0  0  0  0
   49.9778  -32.4884 -105.6566 C   0  0  0  0  0  0  0  0  0  0  0  0
   50.3538  -33.0580 -106.9280 C   0  0  0  0  0  0  0  0  0  0  0  0
   49.8502  -32.4451 -108.1138 C   0  0  0  0  0  0  0  0  0  0  0  0
   50.1777  -32.9324 -109.3628 N   0  0  0  0  0  0  0  0  0  0  0  0
   51.1454  -34.1072 -106.6762 N   0  0  0  0  0  0  0  0  0  0  0  0
   51.2793  -34.2359 -105.3898 C   0  0  0  0  0  0  0  0  0  0  0  0
   50.5882  -33.2616 -104.7080 N   0  0  0  0  0  0  0  0  0  0  0  0
  2  1  1  6  0  0  0
  2  3  1  0  0  0  0
  2  5  1  0  0  0  0
  3  4  1  0  0  0  0
  3 17  1  0  0  0  0
  5  6  1  0  0  0  0
  7  6  1  6  0  0  0
  7  8  1  0  0  0  0
  7  9  1  0  0  0  0
 10  9  1  6  0  0  0
 10 11  1  0  0  0  0
 10 12  1  0  0  0  0
 11 16  1  0  0  0  0
 12 13  1  1  0  0  0
 12 14  1  0  0  0  0
 14 15  1  1  0  0  0
 14 16  1  0  0  0  0
 16 27  1  6  0  0  0
 18 19  2  0  0  0  0
 18 23  1  0  0  0  0
 19 20  1  0  0  0  0
 20 21  2  0  0  0  0
 21 22  1  0  0  0  0
 21 27  1  0  0  0  0
 22 23  2  0  0  0  0
 22 25  1  0  0  0  0
 23 24  1  0  0  0  0
 25 26  2  0  0  0  0
 26 27  1  0  0  0  0
M  END
>  <CHROM.1>
150.99405369,-173.66998903,170.41936985,43.37535655,-161.51116144,167.10118808
32.40402092,48.84610746,-30.48553094,-104.22758361,2.67939793,-0.80192795
1.22369226

>  <Name>
ligand

>  <RI>
0

>  <Rbt.Current_Directory>
/home/itssahil/PROJECTS/Mol_Feturizer/New_Systems/rnas/4L81

>  <Rbt.Executable>
rbdock ($Id: //depot/dev/client3/rdock/2013.1/src/exe/rbdock.cxx#4 $)

>  <Rbt.Library>
libRbt.so (2013.1, Build901 2013/11/27)

>  <Rbt.Parameter_File>
/export/apps/rDock/src/rDock_2013.1_src/data/scripts/dock_solv.prm

>  <Rbt.Receptor>
prm/pocket_docking_8.prm

>  <SCORE>
-10.2404

>  <SCORE.INTER>
-8.99623

>  <SCORE.INTER.CONST>
1

>  <SCORE.INTER.POLAR>
0

>  <SCORE.INTER.ROT>
7

>  <SCORE.INTER.SOLV>
12.5143

>  <SCORE.INTER.VDW>
-18.4356

>  <SCORE.INTER.norm>
-0.333194

>  <SCORE.INTRA>
-1.24417

>  <SCORE.INTRA.DIHEDRAL>
-2.24297

>  <SCORE.INTRA.DIHEDRAL.0>
8.34559

>  <SCORE.INTRA.POLAR>
0

>  <SCORE.INTRA.POLAR.0>
0

>  <SCORE.INTRA.REPUL>
0

>  <SCORE.INTRA.REPUL.0>
0

>  <SCORE.INTRA.SOLV>
-0.955248

>  <SCORE.INTRA.SOLV.lig_0>
-48.829

>  <SCORE.INTRA.VDW>
0.354939

>  <SCORE.INTRA.VDW.0>
-1.77092

>  <SCORE.INTRA.norm>
-0.0460803

>  <SCORE.RESTR>
0

>  <SCORE.RESTR.CAVITY>
0

>  <SCORE.RESTR.norm>
0

>  <SCORE.SYSTEM>
0

>  <SCORE.SYSTEM.CONST>
0

>  <SCORE.SYSTEM.DIHEDRAL>
0

>  <SCORE.SYSTEM.SOLV>
0

>  <SCORE.SYSTEM.norm>
0

>  <SCORE.heavy>
27

>  <SCORE.norm>
-0.379274

>  <RMSD>
5.023

$$$$
ligand
 OpenBabel11021811503D
libRbt.so/2013.1/901 2013/11/27
 27 29  0  0  0  0  0  0  0  0999 V2000
   47.9306  -24.6596 -107.5508 N   0  0  0  0  0  0  0  0  0  0  0  0
   47.9182  -26.0946 -107.8564 C   0  0  2  0  0  0  0  0  0  0  0  0
   47.8619  -26.2912 -109.3567 C   0  0  0  0  0  0  0  0  0  0  0  0
   47.4624  -25.3911 -110.0798 O   0  0  0  0  0  0  0  0  0  0  0  0
   46.7083  -26.7913 -107.2192 C   0  0  0  0  0  0  0  0  0  0  0  0
   46.8887  -26.9195 -105.7132 C   0  0  0  0  0  0  0  0  0  0  0  0
   45.5891  -27.9344 -104.9105 S   0  0  2  0  0  0  0  0  0  0  0  0
   44.1986  -26.7770 -104.6950 C   0  0  0  0  0  0  0  0  0  0  0  0
   46.2873  -27.8463 -103.2633 C   0  0  0  0  0  0  0  0  0  0  0  0
   45.5704  -28.7039 -102.2547 C   0  0  1  0  0  0  0  0  0  0  0  0
   45.3402  -29.9905 -102.8536 O   0  0  0  0  0  0  0  0  0  0  0  0
   46.5952  -28.9041 -101.2118 C   0  0  1  0  0  0  0  0  0  0  0  0
   46.3865  -27.9741 -100.1502 O   0  0  0  0  0  0  0  0  0  0  0  0
   46.3060  -30.2946 -100.7376 C   0  0  1  0  0  0  0  0  0  0  0  0
   45.3107  -30.2720  -99.6935 O   0  0  0  0  0  0  0  0  0  0  0  0
   45.7567  -31.0660 -101.9751 C   0  0  2  0  0  0  0  0  0  0  0  0
   48.2449  -27.3343 -109.8568 O   0  0  0  0  0  0  0  0  0  0  0  0
   50.7495  -32.6127 -102.9125 N   0  0  0  0  0  0  0  0  0  0  0  0
   50.3198  -31.7181 -101.9889 C   0  0  0  0  0  0  0  0  0  0  0  0
   49.0091  -31.4429 -101.8232 N   0  0  0  0  0  0  0  0  0  0  0  0
   48.0875  -31.9857 -102.6353 C   0  0  0  0  0  0  0  0  0  0  0  0
   48.5046  -32.9124 -103.6599 C   0  0  0  0  0  0  0  0  0  0  0  0
   49.8944  -33.2174 -103.7641 C   0  0  0  0  0  0  0  0  0  0  0  0
   50.3609  -34.1025 -104.7147 N   0  0  0  0  0  0  0  0  0  0  0  0
   47.4065  -33.2954 -104.3219 N   0  0  0  0  0  0  0  0  0  0  0  0
   46.3743  -32.6923 -103.8118 C   0  0  0  0  0  0  0  0  0  0  0  0
   46.7304  -31.8768 -102.7631 N   0  0  0  0  0  0  0  0  0  0  0  0
  2  1  1  6  0  0  0
  2  3  1  0  0  0  0
  2  5  1  0  0  0  0
  3  4  1  0  0  0  0
  3 17  1  0  0  0  0
  5  6  1  0  0  0  0
  7  6  1  6  0  0  0
  7  8  1  0  0  0  0
  7  9  1  0  0  0  0
 10  9  1  6  0  0  0
 10 11  1  0  0  0  0
 10 12  1  0  0  0  0
 11 16  1  0  0  0  0
 12 13  1  1  0  0  0
 12 14  1  0  0  0  0
 14 15  1  1  0  0  0
 14 16  1  0  0  0  0
 16 27  1  6  0  0  0
 18 19  2  0  0  0  0
 18 23  1  0  0  0  0
 19 20  1  0  0  0  0
 20 21  2  0  0  0  0
 21 22  1  0  0  0  0
 21 27  1  0  0  0  0
 22 23  2  0  0  0  0
 22 25  1  0  0  0  0
 23 24  1  0  0  0  0
 25 26  2  0  0  0  0
 26 27  1  0  0  0  0
M  END
>  <CHROM.1>
-20.66953508,-73.01912447,-172.45149202,-82.11782531,-174.03733272,45.28312402
107.92482756,47.19228013,-29.42575943,-104.20187601,1.67858481,0.85936061
-0.90224655

>  <Name>
ligand

>  <RI>
0

>  <Rbt.Current_Directory>
/home/itssahil/PROJECTS/Mol_Feturizer/New_Systems/rnas/4L81

>  <Rbt.Executable>
rbdock ($Id: //depot/dev/client3/rdock/2013.1/src/exe/rbdock.cxx#4 $)

>  <Rbt.Library>
libRbt.so (2013.1, Build901 2013/11/27)

>  <Rbt.Parameter_File>
/export/apps/rDock/src/rDock_2013.1_src/data/scripts/dock_solv.prm

>  <Rbt.Receptor>
prm/pocket_docking_6.prm

>  <SCORE>
-15.6928

>  <SCORE.INTER>
-13.2476

>  <SCORE.INTER.CONST>
1

>  <SCORE.INTER.POLAR>
0

>  <SCORE.INTER.ROT>
7

>  <SCORE.INTER.SOLV>
10.7638

>  <SCORE.INTER.VDW>
-20.6863

>  <SCORE.INTER.norm>
-0.490652

>  <SCORE.INTRA>
-2.44524

>  <SCORE.INTRA.DIHEDRAL>
-2.51416

>  <SCORE.INTRA.DIHEDRAL.0>
8.34559

>  <SCORE.INTRA.POLAR>
0

>  <SCORE.INTRA.POLAR.0>
0

>  <SCORE.INTRA.REPUL>
0

>  <SCORE.INTRA.REPUL.0>
0

>  <SCORE.INTRA.SOLV>
-0.685975

>  <SCORE.INTRA.SOLV.lig_0>
-48.829

>  <SCORE.INTRA.VDW>
-0.845175

>  <SCORE.INTRA.VDW.0>
-1.77092

>  <SCORE.INTRA.norm>
-0.0905644

>  <SCORE.RESTR>
0

>  <SCORE.RESTR.CAVITY>
0

>  <SCORE.RESTR.norm>
0

>  <SCORE.SYSTEM>
0

>  <SCORE.SYSTEM.CONST>
0

>  <SCORE.SYSTEM.DIHEDRAL>
0

>  <SCORE.SYSTEM.SOLV>
0

>  <SCORE.SYSTEM.norm>
0

>  <SCORE.heavy>
27

>  <SCORE.norm>
-0.581216

>  <RMSD>
5.032

$$$$
ligand
 OpenBabel11021811503D
libRbt.so/2013.1/901 2013/11/27
 27 29  0  0  0  0  0  0  0  0999 V2000
   48.3582  -29.2259 -107.0404 N   0  0  0  0  0  0  0  0  0  0  0  0
   47.2285  -28.2926 -106.9666 C   0  0  2  0  0  0  0  0  0  0  0  0
   47.5118  -27.0865 -107.8371 C   0  0  0  0  0  0  0  0  0  0  0  0
   46.6069  -26.5523 -108.4603 O   0  0  0  0  0  0  0  0  0  0  0  0
   46.9876  -27.8194 -105.5267 C   0  0  0  0  0  0  0  0  0  0  0  0
   45.6102  -27.1865 -105.3882 C   0  0  0  0  0  0  0  0  0  0  0  0
   45.3126  -26.4507 -103.7349 S   0  0  2  0  0  0  0  0  0  0  0  0
   46.7786  -25.4075 -103.4482 C   0  0  0  0  0  0  0  0  0  0  0  0
   45.8103  -27.8982 -102.8044 C   0  0  0  0  0  0  0  0  0  0  0  0
   44.6865  -28.8649 -102.5409 C   0  0  1  0  0  0  0  0  0  0  0  0
   44.6739  -29.8284 -103.6079 O   0  0  0  0  0  0  0  0  0  0  0  0
   45.1492  -29.5799 -101.3357 C   0  0  1  0  0  0  0  0  0  0  0  0
   44.5490  -29.0038 -100.1767 O   0  0  0  0  0  0  0  0  0  0  0  0
   44.6150  -30.9615 -101.5548 C   0  0  1  0  0  0  0  0  0  0  0  0
   43.2689  -31.0656 -101.0464 O   0  0  0  0  0  0  0  0  0  0  0  0
   44.6163  -31.1840 -103.0971 C   0  0  2  0  0  0  0  0  0  0  0  0
   48.6358  -26.6196 -107.8971 O   0  0  0  0  0  0  0  0  0  0  0  0
   47.2196  -33.0152 -107.3477 N   0  0  0  0  0  0  0  0  0  0  0  0
   46.0148  -32.3942 -107.3192 C   0  0  0  0  0  0  0  0  0  0  0  0
   45.4791  -31.9366 -106.1683 N   0  0  0  0  0  0  0  0  0  0  0  0
   46.0874  -32.1625 -104.9925 C   0  0  0  0  0  0  0  0  0  0  0  0
   47.3525  -32.8565 -104.9718 C   0  0  0  0  0  0  0  0  0  0  0  0
   47.9098  -33.2742 -106.2169 C   0  0  0  0  0  0  0  0  0  0  0  0
   49.1208  -33.9340 -106.2707 N   0  0  0  0  0  0  0  0  0  0  0  0
   47.7332  -32.9532 -103.6926 N   0  0  0  0  0  0  0  0  0  0  0  0
   46.8292  -32.3999 -102.9402 C   0  0  0  0  0  0  0  0  0  0  0  0
   45.7932  -31.8875 -103.6856 N   0  0  0  0  0  0  0  0  0  0  0  0
  2  1  1  1  0  0  0
  2  3  1  0  0  0  0
  2  5  1  0  0  0  0
  3  4  1  0  0  0  0
  3 17  1  0  0  0  0
  5  6  1  0  0  0  0
  7  6  1  6  0  0  0
  7  8  1  0  0  0  0
  7  9  1  0  0  0  0
 10  9  1  6  0  0  0
 10 11  1  0  0  0  0
 10 12  1  0  0  0  0
 11 16  1  0  0  0  0
 12 13  1  1  0  0  0
 12 14  1  0  0  0  0
 14 15  1  6  0  0  0
 14 16  1  0  0  0  0
 16 27  1  1  0  0  0
 18 19  2  0  0  0  0
 18 23  1  0  0  0  0
 19 20  1  0  0  0  0
 20 21  2  0  0  0  0
 21 22  1  0  0  0  0
 21 27  1  0  0  0  0
 22 23  2  0  0  0  0
 22 25  1  0  0  0  0
 23 24  1  0  0  0  0
 25 26  2  0  0  0  0
 26 27  1  0  0  0  0
M  END
>  <CHROM.1>
143.49918643,-163.89543587,-174.42042059,50.15588270,-88.83053814,91.97392005
-63.39522210,46.22377875,-29.73313500,-104.59960979,-1.04477866,-1.07363336
2.97297522

>  <Name>
ligand

>  <RI>
0

>  <Rbt.Current_Directory>
/home/itssahil/PROJECTS/Mol_Feturizer/New_Systems/rnas/4L81

>  <Rbt.Executable>
rbdock ($Id: //depot/dev/client3/rdock/2013.1/src/exe/rbdock.cxx#4 $)

>  <Rbt.Library>
libRbt.so (2013.1, Build901 2013/11/27)

>  <Rbt.Parameter_File>
/export/apps/rDock/src/rDock_2013.1_src/data/scripts/dock_solv.prm

>  <Rbt.Receptor>
prm/pocket_docking_5.prm

>  <SCORE>
-14.1303

>  <SCORE.INTER>
-13.3137

>  <SCORE.INTER.CONST>
1

>  <SCORE.INTER.POLAR>
0

>  <SCORE.INTER.ROT>
7

>  <SCORE.INTER.SOLV>
11.6847

>  <SCORE.INTER.VDW>
-21.0374

>  <SCORE.INTER.norm>
-0.493102

>  <SCORE.INTRA>
-0.816556

>  <SCORE.INTRA.DIHEDRAL>
0.00316675

>  <SCORE.INTRA.DIHEDRAL.0>
8.34559

>  <SCORE.INTRA.POLAR>
0

>  <SCORE.INTRA.POLAR.0>
0

>  <SCORE.INTRA.REPUL>
0

>  <SCORE.INTRA.REPUL.0>
0

>  <SCORE.INTRA.SOLV>
-1.18667

>  <SCORE.INTRA.SOLV.lig_0>
-48.829

>  <SCORE.INTRA.VDW>
-0.224806

>  <SCORE.INTRA.VDW.0>
-1.77092

>  <SCORE.INTRA.norm>
-0.0302428

>  <SCORE.RESTR>
0

>  <SCORE.RESTR.CAVITY>
0

>  <SCORE.RESTR.norm>
0

>  <SCORE.SYSTEM>
0

>  <SCORE.SYSTEM.CONST>
0

>  <SCORE.SYSTEM.DIHEDRAL>
0

>  <SCORE.SYSTEM.SOLV>
0

>  <SCORE.SYSTEM.norm>
0

>  <SCORE.heavy>
27

>  <SCORE.norm>
-0.523344

>  <RMSD>
5.033

$$$$
ligand
 OpenBabel11021811503D
libRbt.so/2013.1/901 2013/11/27
 27 29  0  0  0  0  0  0  0  0999 V2000
   48.2300  -24.2765 -107.1812 N   0  0  0  0  0  0  0  0  0  0  0  0
   47.8323  -25.3169 -106.2261 C   0  0  2  0  0  0  0  0  0  0  0  0
   47.2321  -26.4878 -106.9753 C   0  0  0  0  0  0  0  0  0  0  0  0
   46.2388  -26.3295 -107.6689 O   0  0  0  0  0  0  0  0  0  0  0  0
   46.7990  -24.7884 -105.2220 C   0  0  0  0  0  0  0  0  0  0  0  0
   46.6278  -25.7575 -104.0608 C   0  0  0  0  0  0  0  0  0  0  0  0
   45.7550  -27.3016 -104.5270 S   0  0  2  0  0  0  0  0  0  0  0  0
   44.0483  -26.7578 -104.8603 C   0  0  0  0  0  0  0  0  0  0  0  0
   45.5393  -27.8963 -102.8511 C   0  0  0  0  0  0  0  0  0  0  0  0
   44.5720  -29.0443 -102.7355 C   0  0  1  0  0  0  0  0  0  0  0  0
   45.0117  -30.0833 -103.6266 O   0  0  0  0  0  0  0  0  0  0  0  0
   44.8145  -29.5363 -101.3655 C   0  0  1  0  0  0  0  0  0  0  0  0
   43.8368  -28.9917 -100.4807 O   0  0  0  0  0  0  0  0  0  0  0  0
   44.6068  -31.0121 -101.5109 C   0  0  1  0  0  0  0  0  0  0  0  0
   43.2134  -31.3425 -101.3360 O   0  0  0  0  0  0  0  0  0  0  0  0
   45.0572  -31.3696 -102.9591 C   0  0  2  0  0  0  0  0  0  0  0  0
   47.7528  -27.5881 -106.9193 O   0  0  0  0  0  0  0  0  0  0  0  0
   50.1216  -31.5186 -101.3692 N   0  0  0  0  0  0  0  0  0  0  0  0
   49.1056  -30.8014 -100.8297 C   0  0  0  0  0  0  0  0  0  0  0  0
   47.8459  -30.8855 -101.3063 N   0  0  0  0  0  0  0  0  0  0  0  0
   47.5738  -31.6219 -102.3959 C   0  0  0  0  0  0  0  0  0  0  0  0
   48.6340  -32.3698 -103.0276 C   0  0  0  0  0  0  0  0  0  0  0  0
   49.9398  -32.2959 -102.4577 C   0  0  0  0  0  0  0  0  0  0  0  0
   50.9974  -32.9933 -103.0053 N   0  0  0  0  0  0  0  0  0  0  0  0
   48.1025  -33.0037 -104.0795 N   0  0  0  0  0  0  0  0  0  0  0  0
   46.8384  -32.7109 -104.1542 C   0  0  0  0  0  0  0  0  0  0  0  0
   46.4521  -31.8682 -103.1382 N   0  0  0  0  0  0  0  0  0  0  0  0
  2  1  1  6  0  0  0
  2  3  1  0  0  0  0
  2  5  1  0  0  0  0
  3  4  1  0  0  0  0
  3 17  1  0  0  0  0
  5  6  1  0  0  0  0
  7  6  1  1  0  0  0
  7  8  1  0  0  0  0
  7  9  1  0  0  0  0
 10  9  1  6  0  0  0
 10 11  1  0  0  0  0
 10 12  1  0  0  0  0
 11 16  1  0  0  0  0
 12 13  1  1  0  0  0
 12 14  1  0  0  0  0
 14 15  1  6  0  0  0
 14 16  1  0  0  0  0
 16 27  1  1  0  0  0
 18 19  2  0  0  0  0
 18 23  1  0  0  0  0
 19 20  1  0  0  0  0
 20 21  2  0  0  0  0
 21 22  1  0  0  0  0
 21 27  1  0  0  0  0
 22 23  2  0  0  0  0
 22 25  1  0  0  0  0
 23 24  1  0  0  0  0
 25 26  2  0  0  0  0
 26 27  1  0  0  0  0
M  END
>  <CHROM.1>
-59.87202070,-167.26819019,-71.20554166,-68.99089527,167.20103970,54.95996108
85.51517212,46.64876347,-29.23852871,-103.64036200,-1.70608620,-0.39961968
2.51649364

>  <Name>
ligand

>  <RI>
0

>  <Rbt.Current_Directory>
/home/itssahil/PROJECTS/Mol_Feturizer/New_Systems/rnas/4L81

>  <Rbt.Executable>
rbdock ($Id: //depot/dev/client3/rdock/2013.1/src/exe/rbdock.cxx#4 $)

>  <Rbt.Library>
libRbt.so (2013.1, Build901 2013/11/27)

>  <Rbt.Parameter_File>
/export/apps/rDock/src/rDock_2013.1_src/data/scripts/dock_solv.prm

>  <Rbt.Receptor>
prm/pocket_docking_6.prm

>  <SCORE>
-16.6892

>  <SCORE.INTER>
-13.044

>  <SCORE.INTER.CONST>
1

>  <SCORE.INTER.POLAR>
0

>  <SCORE.INTER.ROT>
7

>  <SCORE.INTER.SOLV>
12.2137

>  <SCORE.INTER.VDW>
-21.0339

>  <SCORE.INTER.norm>
-0.483111

>  <SCORE.INTRA>
-3.64525

>  <SCORE.INTRA.DIHEDRAL>
-3.83966

>  <SCORE.INTRA.DIHEDRAL.0>
8.34559

>  <SCORE.INTRA.POLAR>
0

>  <SCORE.INTRA.POLAR.0>
0

>  <SCORE.INTRA.REPUL>
0

>  <SCORE.INTRA.REPUL.0>
0

>  <SCORE.INTRA.SOLV>
-1.12405

>  <SCORE.INTRA.SOLV.lig_0>
-48.829

>  <SCORE.INTRA.VDW>
-1.1634

>  <SCORE.INTRA.VDW.0>
-1.77092

>  <SCORE.INTRA.norm>
-0.135009

>  <SCORE.RESTR>
0

>  <SCORE.RESTR.CAVITY>
0

>  <SCORE.RESTR.norm>
0

>  <SCORE.SYSTEM>
0

>  <SCORE.SYSTEM.CONST>
0

>  <SCORE.SYSTEM.DIHEDRAL>
0

>  <SCORE.SYSTEM.SOLV>
0

>  <SCORE.SYSTEM.norm>
0

>  <SCORE.heavy>
27

>  <SCORE.norm>
-0.61812

>  <RMSD>
5.036

$$$$
ligand
 OpenBabel11021811503D
libRbt.so/2013.1/901 2013/11/27
 27 29  0  0  0  0  0  0  0  0999 V2000
   48.2756  -26.4267 -106.3854 N   0  0  0  0  0  0  0  0  0  0  0  0
   49.1863  -25.3836 -105.9003 C   0  0  2  0  0  0  0  0  0  0  0  0
   50.5508  -25.9858 -105.6389 C   0  0  0  0  0  0  0  0  0  0  0  0
   50.7464  -27.1750 -105.8398 O   0  0  0  0  0  0  0  0  0  0  0  0
   48.6679  -24.7480 -104.6031 C   0  0  0  0  0  0  0  0  0  0  0  0
   48.6307  -25.7708 -103.4764 C   0  0  0  0  0  0  0  0  0  0  0  0
   47.3692  -27.0785 -103.7250 S   0  0  2  0  0  0  0  0  0  0  0  0
   45.7850  -26.1827 -103.6377 C   0  0  0  0  0  0  0  0  0  0  0  0
   47.4312  -27.7057 -102.0482 C   0  0  0  0  0  0  0  0  0  0  0  0
   46.2607  -28.5802 -101.6847 C   0  0  1  0  0  0  0  0  0  0  0  0
   46.1608  -29.6177 -102.6749 O   0  0  0  0  0  0  0  0  0  0  0  0
   46.7152  -29.2303 -100.4404 C   0  0  1  0  0  0  0  0  0  0  0  0
   46.1835  -28.5341  -99.3143 O   0  0  0  0  0  0  0  0  0  0  0  0
   46.0947  -30.5893 -100.5408 C   0  0  1  0  0  0  0  0  0  0  0  0
   44.7600  -30.5734  -99.9934 O   0  0  0  0  0  0  0  0  0  0  0  0
   46.0385  -30.9256 -102.0613 C   0  0  2  0  0  0  0  0  0  0  0  0
   51.4719  -25.2845 -105.2585 O   0  0  0  0  0  0  0  0  0  0  0  0
   51.1735  -32.2780 -102.0967 N   0  0  0  0  0  0  0  0  0  0  0  0
   50.5697  -31.3411 -101.3250 C   0  0  0  0  0  0  0  0  0  0  0  0
   49.2394  -31.1222 -101.3843 N   0  0  0  0  0  0  0  0  0  0  0  0
   48.4783  -31.7702 -102.2811 C   0  0  0  0  0  0  0  0  0  0  0  0
   49.0867  -32.7473 -103.1516 C   0  0  0  0  0  0  0  0  0  0  0  0
   50.4866  -32.9872 -103.0172 C   0  0  0  0  0  0  0  0  0  0  0  0
   51.1305  -33.9147 -103.8107 N   0  0  0  0  0  0  0  0  0  0  0  0
   48.1215  -33.2342 -103.9404 N   0  0  0  0  0  0  0  0  0  0  0  0
   46.9993  -32.6490 -103.6445 C   0  0  0  0  0  0  0  0  0  0  0  0
   47.1546  -31.7411 -102.6231 N   0  0  0  0  0  0  0  0  0  0  0  0
  2  1  1  1  0  0  0
  2  3  1  0  0  0  0
  2  5  1  0  0  0  0
  3  4  1  0  0  0  0
  3 17  1  0  0  0  0
  5  6  1  0  0  0  0
  7  6  1  1  0  0  0
  7  8  1  0  0  0  0
  7  9  1  0  0  0  0
 10  9  1  6  0  0  0
 10 11  1  0  0  0  0
 10 12  1  0  0  0  0
 11 16  1  0  0  0  0
 12 13  1  1  0  0  0
 12 14  1  0  0  0  0
 14 15  1  6  0  0  0
 14 16  1  0  0  0  0
 16 27  1  6  0  0  0
 18 19  2  0  0  0  0
 18 23  1  0  0  0  0
 19 20  1  0  0  0  0
 20 21  2  0  0  0  0
 21 22  1  0  0  0  0
 21 27  1  0  0  0  0
 22 23  2  0  0  0  0
 22 25  1  0  0  0  0
 23 24  1  0  0  0  0
 25 26  2  0  0  0  0
 26 27  1  0  0  0  0
M  END
>  <CHROM.1>
0.07007411,64.28575027,-68.24193414,-65.54393852,164.15838196,53.53181169
79.85078381,48.17709439,-29.19509923,-103.01308993,-1.39996587,-0.61546654
2.79584060

>  <Name>
ligand

>  <RI>
0

>  <Rbt.Current_Directory>
/home/itssahil/PROJECTS/Mol_Feturizer/New_Systems/rnas/4L81

>  <Rbt.Executable>
rbdock ($Id: //depot/dev/client3/rdock/2013.1/src/exe/rbdock.cxx#4 $)

>  <Rbt.Library>
libRbt.so (2013.1, Build901 2013/11/27)

>  <Rbt.Parameter_File>
/export/apps/rDock/src/rDock_2013.1_src/data/scripts/dock_solv.prm

>  <Rbt.Receptor>
prm/pocket_docking_6.prm

>  <SCORE>
-15.7873

>  <SCORE.INTER>
-14.2944

>  <SCORE.INTER.CONST>
1

>  <SCORE.INTER.POLAR>
0

>  <SCORE.INTER.ROT>
7

>  <SCORE.INTER.SOLV>
11.0718

>  <SCORE.INTER.VDW>
-21.4868

>  <SCORE.INTER.norm>
-0.52942

>  <SCORE.INTRA>
-1.50247

>  <SCORE.INTRA.DIHEDRAL>
-4.36956

>  <SCORE.INTRA.DIHEDRAL.0>
8.34559

>  <SCORE.INTRA.POLAR>
0

>  <SCORE.INTRA.POLAR.0>
0

>  <SCORE.INTRA.REPUL>
0

>  <SCORE.INTRA.REPUL.0>
0

>  <SCORE.INTRA.SOLV>
1.53766

>  <SCORE.INTRA.SOLV.lig_0>
-48.829

>  <SCORE.INTRA.VDW>
-0.086523

>  <SCORE.INTRA.VDW.0>
-1.77092

>  <SCORE.INTRA.norm>
-0.0556472

>  <SCORE.RESTR>
0.00952952

>  <SCORE.RESTR.CAVITY>
0.00952952

>  <SCORE.RESTR.norm>
0.000352945

>  <SCORE.SYSTEM>
0

>  <SCORE.SYSTEM.CONST>
0

>  <SCORE.SYSTEM.DIHEDRAL>
0

>  <SCORE.SYSTEM.SOLV>
0

>  <SCORE.SYSTEM.norm>
0

>  <SCORE.heavy>
27

>  <SCORE.norm>
-0.584715

>  <RMSD>
5.038

$$$$
ligand
 OpenBabel11021811503D
libRbt.so/2013.1/901 2013/11/27
 27 29  0  0  0  0  0  0  0  0999 V2000
   47.1691  -29.0011  -99.2264 N   0  0  0  0  0  0  0  0  0  0  0  0
   46.3508  -28.8346 -100.4328 C   0  0  2  0  0  0  0  0  0  0  0  0
   45.0605  -29.6120 -100.2794 C   0  0  0  0  0  0  0  0  0  0  0  0
   44.0075  -29.1404 -100.6814 O   0  0  0  0  0  0  0  0  0  0  0  0
   47.0874  -29.3377 -101.6816 C   0  0  0  0  0  0  0  0  0  0  0  0
   48.3058  -28.4741 -101.9762 C   0  0  0  0  0  0  0  0  0  0  0  0
   49.3247  -29.1060 -103.3640 S   0  0  2  0  0  0  0  0  0  0  0  0
   50.1445  -30.5785 -102.6719 C   0  0  0  0  0  0  0  0  0  0  0  0
   50.6536  -27.9220 -103.1616 C   0  0  0  0  0  0  0  0  0  0  0  0
   50.5202  -26.7056 -104.0388 C   0  0  1  0  0  0  0  0  0  0  0  0
   49.7994  -27.0914 -105.2214 O   0  0  0  0  0  0  0  0  0  0  0  0
   49.6140  -25.8408 -103.2587 C   0  0  1  0  0  0  0  0  0  0  0  0
   50.3774  -24.8824 -102.5280 O   0  0  0  0  0  0  0  0  0  0  0  0
   48.8217  -25.1550 -104.3284 C   0  0  1  0  0  0  0  0  0  0  0  0
   49.5043  -23.9644 -104.7732 O   0  0  0  0  0  0  0  0  0  0  0  0
   48.7138  -26.1727 -105.5035 C   0  0  2  0  0  0  0  0  0  0  0  0
   45.0665  -30.7257  -99.7849 O   0  0  0  0  0  0  0  0  0  0  0  0
   44.1228  -27.7712 -103.3667 N   0  0  0  0  0  0  0  0  0  0  0  0
   45.0237  -26.9055 -102.8403 C   0  0  0  0  0  0  0  0  0  0  0  0
   46.1396  -26.5481 -103.5096 N   0  0  0  0  0  0  0  0  0  0  0  0
   46.4395  -27.1116 -104.6911 C   0  0  0  0  0  0  0  0  0  0  0  0
   45.5286  -28.0697 -105.2700 C   0  0  0  0  0  0  0  0  0  0  0  0
   44.3333  -28.3772 -104.5543 C   0  0  0  0  0  0  0  0  0  0  0  0
   43.4142  -29.2769 -105.0546 N   0  0  0  0  0  0  0  0  0  0  0  0
   46.0605  -28.4756 -106.4289 N   0  0  0  0  0  0  0  0  0  0  0  0
   47.1978  -27.8716 -106.6058 C   0  0  0  0  0  0  0  0  0  0  0  0
   47.4819  -27.0119 -105.5706 N   0  0  0  0  0  0  0  0  0  0  0  0
  2  1  1  1  0  0  0
  2  3  1  0  0  0  0
  2  5  1  0  0  0  0
  3  4  1  0  0  0  0
  3 17  1  0  0  0  0
  5  6  1  0  0  0  0
  7  6  1  1  0  0  0
  7  8  1  0  0  0  0
  7  9  1  0  0  0  0
 10  9  1  1  0  0  0
 10 11  1  0  0  0  0
 10 12  1  0  0  0  0
 11 16  1  0  0  0  0
 12 13  1  6  0  0  0
 12 14  1  0  0  0  0
 14 15  1  6  0  0  0
 14 16  1  0  0  0  0
 16 27  1  1  0  0  0
 18 19  2  0  0  0  0
 18 23  1  0  0  0  0
 19 20  1  0  0  0  0
 20 21  2  0  0  0  0
 21 22  1  0  0  0  0
 21 27  1  0  0  0  0
 22 23  2  0  0  0  0
 22 25  1  0  0  0  0
 23 24  1  0  0  0  0
 25 26  2  0  0  0  0
 26 27  1  0  0  0  0
M  END
>  <CHROM.1>
140.33591259,-66.11783287,174.68387069,-72.55120715,-94.62126708,-28.50066052
107.80961153,47.41602797,-27.83874196,-103.31896905,-2.42660994,-0.27303772
-1.06479851

>  <Name>
ligand

>  <RI>
0

>  <Rbt.Current_Directory>
/home/itssahil/PROJECTS/Mol_Feturizer/New_Systems/rnas/4L81

>  <Rbt.Executable>
rbdock ($Id: //depot/dev/client3/rdock/2013.1/src/exe/rbdock.cxx#4 $)

>  <Rbt.Library>
libRbt.so (2013.1, Build901 2013/11/27)

>  <Rbt.Parameter_File>
/export/apps/rDock/src/rDock_2013.1_src/data/scripts/dock_solv.prm

>  <Rbt.Receptor>
prm/pocket_docking_3.prm

>  <SCORE>
-7.69822

>  <SCORE.INTER>
-3.86426

>  <SCORE.INTER.CONST>
1

>  <SCORE.INTER.POLAR>
0

>  <SCORE.INTER.ROT>
7

>  <SCORE.INTER.SOLV>
20.2114

>  <SCORE.INTER.VDW>
-17.58

>  <SCORE.INTER.norm>
-0.143121

>  <SCORE.INTRA>
-3.85156

>  <SCORE.INTRA.DIHEDRAL>
-0.225536

>  <SCORE.INTRA.DIHEDRAL.0>
8.34559

>  <SCORE.INTRA.POLAR>
0

>  <SCORE.INTRA.POLAR.0>
0

>  <SCORE.INTRA.REPUL>
0

>  <SCORE.INTRA.REPUL.0>
0

>  <SCORE.INTRA.SOLV>
-0.325412

>  <SCORE.INTRA.SOLV.lig_0>
-48.829

>  <SCORE.INTRA.VDW>
-3.57609

>  <SCORE.INTRA.VDW.0>
-1.77092

>  <SCORE.INTRA.norm>
-0.14265

>  <SCORE.RESTR>
0.0175994

>  <SCORE.RESTR.CAVITY>
0.0175994

>  <SCORE.RESTR.norm>
0.000651829

>  <SCORE.SYSTEM>
0

>  <SCORE.SYSTEM.CONST>
0

>  <SCORE.SYSTEM.DIHEDRAL>
0

>  <SCORE.SYSTEM.SOLV>
0

>  <SCORE.SYSTEM.norm>
0

>  <SCORE.heavy>
27

>  <SCORE.norm>
-0.285119

>  <RMSD>
5.042

$$$$
ligand
 OpenBabel11021811503D
libRbt.so/2013.1/901 2013/11/27
 27 29  0  0  0  0  0  0  0  0999 V2000
   47.3093  -28.3284 -105.5303 N   0  0  0  0  0  0  0  0  0  0  0  0
   46.5750  -29.5979 -105.5724 C   0  0  2  0  0  0  0  0  0  0  0  0
   46.8010  -30.2681 -106.9112 C   0  0  0  0  0  0  0  0  0  0  0  0
   46.3853  -31.3997 -107.1099 O   0  0  0  0  0  0  0  0  0  0  0  0
   45.0688  -29.3792 -105.3753 C   0  0  0  0  0  0  0  0  0  0  0  0
   44.7392  -29.1775 -103.9030 C   0  0  0  0  0  0  0  0  0  0  0  0
   44.8901  -30.7113 -102.9089 S   0  0  2  0  0  0  0  0  0  0  0  0
   43.2548  -30.8896 -102.1256 C   0  0  0  0  0  0  0  0  0  0  0  0
   45.7740  -29.9539 -101.5473 C   0  0  0  0  0  0  0  0  0  0  0  0
   47.1870  -30.4498 -101.3916 C   0  0  1  0  0  0  0  0  0  0  0  0
   47.9587  -29.9357 -102.4903 O   0  0  0  0  0  0  0  0  0  0  0  0
   47.6498  -29.7379 -100.1847 C   0  0  1  0  0  0  0  0  0  0  0  0
   47.5245  -30.5907  -99.0478 O   0  0  0  0  0  0  0  0  0  0  0  0
   49.0966  -29.4975 -100.4864 C   0  0  1  0  0  0  0  0  0  0  0  0
   49.8906  -30.6281 -100.0707 O   0  0  0  0  0  0  0  0  0  0  0  0
   49.1911  -29.3248 -102.0321 C   0  0  2  0  0  0  0  0  0  0  0  0
   47.3689  -29.6735 -107.8105 O   0  0  0  0  0  0  0  0  0  0  0  0
   46.4770  -25.0343 -103.5889 N   0  0  0  0  0  0  0  0  0  0  0  0
   45.9771  -26.2189 -103.1591 C   0  0  0  0  0  0  0  0  0  0  0  0
   46.7813  -27.2221 -102.7494 N   0  0  0  0  0  0  0  0  0  0  0  0
   48.1165  -27.1093 -102.8388 C   0  0  0  0  0  0  0  0  0  0  0  0
   48.6918  -25.8802 -103.3298 C   0  0  0  0  0  0  0  0  0  0  0  0
   47.8059  -24.8250 -103.7000 C   0  0  0  0  0  0  0  0  0  0  0  0
   48.2887  -23.6198 -104.1680 N   0  0  0  0  0  0  0  0  0  0  0  0
   50.0213  -26.0317 -103.3227 N   0  0  0  0  0  0  0  0  0  0  0  0
   50.3082  -27.2228 -102.8887 C   0  0  0  0  0  0  0  0  0  0  0  0
   49.1745  -27.9320 -102.5671 N   0  0  0  0  0  0  0  0  0  0  0  0
  2  1  1  6  0  0  0
  2  3  1  0  0  0  0
  2  5  1  0  0  0  0
  3  4  1  0  0  0  0
  3 17  1  0  0  0  0
  5  6  1  0  0  0  0
  7  6  1  6  0  0  0
  7  8  1  0  0  0  0
  7  9  1  0  0  0  0
 10  9  1  6  0  0  0
 10 11  1  0  0  0  0
 10 12  1  0  0  0  0
 11 16  1  0  0  0  0
 12 13  1  1  0  0  0
 12 14  1  0  0  0  0
 14 15  1  6  0  0  0
 14 16  1  0  0  0  0
 16 27  1  1  0  0  0
 18 19  2  0  0  0  0
 18 23  1  0  0  0  0
 19 20  1  0  0  0  0
 20 21  2  0  0  0  0
 21 22  1  0  0  0  0
 21 27  1  0  0  0  0
 22 23  2  0  0  0  0
 22 25  1  0  0  0  0
 23 24  1  0  0  0  0
 25 26  2  0  0  0  0
 26 27  1  0  0  0  0
M  END
>  <CHROM.1>
172.89526108,-79.16960049,-71.59436875,-124.26710585,-113.89038913,70.67286655
29.86143313,47.20625688,-28.73226824,-103.19868987,0.33726850,-0.93193201
-0.96086384

>  <Name>
ligand

>  <RI>
0

>  <Rbt.Current_Directory>
/home/itssahil/PROJECTS/Mol_Feturizer/New_Systems/rnas/4L81

>  <Rbt.Executable>
rbdock ($Id: //depot/dev/client3/rdock/2013.1/src/exe/rbdock.cxx#4 $)

>  <Rbt.Library>
libRbt.so (2013.1, Build901 2013/11/27)

>  <Rbt.Parameter_File>
/export/apps/rDock/src/rDock_2013.1_src/data/scripts/dock_solv.prm

>  <Rbt.Receptor>
prm/pocket_docking_5.prm

>  <SCORE>
-12.5398

>  <SCORE.INTER>
-12.7047

>  <SCORE.INTER.CONST>
1

>  <SCORE.INTER.POLAR>
0

>  <SCORE.INTER.ROT>
7

>  <SCORE.INTER.SOLV>
9.08706

>  <SCORE.INTER.VDW>
-19.7655

>  <SCORE.INTER.norm>
-0.470546

>  <SCORE.INTRA>
0.164805

>  <SCORE.INTRA.DIHEDRAL>
5.18649

>  <SCORE.INTRA.DIHEDRAL.0>
8.34559

>  <SCORE.INTRA.POLAR>
0

>  <SCORE.INTRA.POLAR.0>
0

>  <SCORE.INTRA.REPUL>
0

>  <SCORE.INTRA.REPUL.0>
0

>  <SCORE.INTRA.SOLV>
2.50809

>  <SCORE.INTRA.SOLV.lig_0>
-48.829

>  <SCORE.INTRA.VDW>
-3.68248

>  <SCORE.INTRA.VDW.0>
-1.77092

>  <SCORE.INTRA.norm>
0.00610388

>  <SCORE.RESTR>
0.000169193

>  <SCORE.RESTR.CAVITY>
0.000169193

>  <SCORE.RESTR.norm>
6.26641e-06

>  <SCORE.SYSTEM>
0

>  <SCORE.SYSTEM.CONST>
0

>  <SCORE.SYSTEM.DIHEDRAL>
0

>  <SCORE.SYSTEM.SOLV>
0

>  <SCORE.SYSTEM.norm>
0

>  <SCORE.heavy>
27

>  <SCORE.norm>
-0.464435

>  <RMSD>
5.044

$$$$
ligand
 OpenBabel11021811503D
libRbt.so/2013.1/901 2013/11/27
 27 29  0  0  0  0  0  0  0  0999 V2000
   47.4967  -25.4968 -107.5811 N   0  0  0  0  0  0  0  0  0  0  0  0
   46.2599  -25.3937 -106.7985 C   0  0  2  0  0  0  0  0  0  0  0  0
   46.2381  -24.0720 -106.0599 C   0  0  0  0  0  0  0  0  0  0  0  0
   45.4541  -23.1957 -106.3915 O   0  0  0  0  0  0  0  0  0  0  0  0
   46.1477  -26.5342 -105.7776 C   0  0  0  0  0  0  0  0  0  0  0  0
   46.0545  -27.8816 -106.4795 C   0  0  0  0  0  0  0  0  0  0  0  0
   45.9807  -29.3003 -105.3197 S   0  0  2  0  0  0  0  0  0  0  0  0
   45.5772  -30.7202 -106.3877 C   0  0  0  0  0  0  0  0  0  0  0  0
   44.3394  -28.9379 -104.7003 C   0  0  0  0  0  0  0  0  0  0  0  0
   44.1418  -29.3088 -103.2546 C   0  0  1  0  0  0  0  0  0  0  0  0
   44.4215  -30.7123 -103.1169 O   0  0  0  0  0  0  0  0  0  0  0  0
   45.2439  -28.5936 -102.5825 C   0  0  1  0  0  0  0  0  0  0  0  0
   44.7587  -27.3659 -102.0413 O   0  0  0  0  0  0  0  0  0  0  0  0
   45.6092  -29.5318 -101.4741 C   0  0  1  0  0  0  0  0  0  0  0  0
   44.7934  -29.2773 -100.3117 O   0  0  0  0  0  0  0  0  0  0  0  0
   45.3276  -30.9662 -102.0139 C   0  0  2  0  0  0  0  0  0  0  0  0
   46.9776  -23.8843 -105.1097 O   0  0  0  0  0  0  0  0  0  0  0  0
   50.5216  -32.0669 -102.1106 N   0  0  0  0  0  0  0  0  0  0  0  0
   49.8789  -31.1771 -101.3150 C   0  0  0  0  0  0  0  0  0  0  0  0
   48.5392  -31.0218 -101.3613 N   0  0  0  0  0  0  0  0  0  0  0  0
   47.8037  -31.6866 -102.2672 C   0  0  0  0  0  0  0  0  0  0  0  0
   48.4523  -32.6141 -103.1624 C   0  0  0  0  0  0  0  0  0  0  0  0
   49.8631  -32.7887 -103.0420 C   0  0  0  0  0  0  0  0  0  0  0  0
   50.5454  -33.6667 -103.8594 N   0  0  0  0  0  0  0  0  0  0  0  0
   47.5061  -33.1303 -103.9556 N   0  0  0  0  0  0  0  0  0  0  0  0
   46.3591  -32.6067 -103.6401 C   0  0  0  0  0  0  0  0  0  0  0  0
   46.4777  -31.7144 -102.6003 N   0  0  0  0  0  0  0  0  0  0  0  0
  2  1  1  1  0  0  0
  2  3  1  0  0  0  0
  2  5  1  0  0  0  0
  3  4  1  0  0  0  0
  3 17  1  0  0  0  0
  5  6  1  0  0  0  0
  7  6  1  6  0  0  0
  7  8  1  0  0  0  0
  7  9  1  0  0  0  0
 10  9  1  6  0  0  0
 10 11  1  0  0  0  0
 10 12  1  0  0  0  0
 11 16  1  0  0  0  0
 12 13  1  1  0  0  0
 12 14  1  0  0  0  0
 14 15  1  1  0  0  0
 14 16  1  0  0  0  0
 16 27  1  6  0  0  0
 18 19  2  0  0  0  0
 18 23  1  0  0  0  0
 19 20  1  0  0  0  0
 20 21  2  0  0  0  0
 21 22  1  0  0  0  0
 21 27  1  0  0  0  0
 22 23  2  0  0  0  0
 22 25  1  0  0  0  0
 23 24  1  0  0  0  0
 25 26  2  0  0  0  0
 26 27  1  0  0  0  0
M  END
>  <CHROM.1>
110.00315744,-63.67154764,177.84482094,170.22042930,-146.91733073,-57.65633849
146.26879653,46.59726245,-29.29337592,-103.89534167,-1.91722310,-0.58322445
2.49494404

>  <Name>
ligand

>  <RI>
0

>  <Rbt.Current_Directory>
/home/itssahil/PROJECTS/Mol_Feturizer/New_Systems/rnas/4L81

>  <Rbt.Executable>
rbdock ($Id: //depot/dev/client3/rdock/2013.1/src/exe/rbdock.cxx#4 $)

>  <Rbt.Library>
libRbt.so (2013.1, Build901 2013/11/27)

>  <Rbt.Parameter_File>
/export/apps/rDock/src/rDock_2013.1_src/data/scripts/dock_solv.prm

>  <Rbt.Receptor>
prm/pocket_docking_6.prm

>  <SCORE>
-13.62

>  <SCORE.INTER>
-12.0744

>  <SCORE.INTER.CONST>
1

>  <SCORE.INTER.POLAR>
0

>  <SCORE.INTER.ROT>
7

>  <SCORE.INTER.SOLV>
12.5423

>  <SCORE.INTER.VDW>
-20.497

>  <SCORE.INTER.norm>
-0.447199

>  <SCORE.INTRA>
-1.54562

>  <SCORE.INTRA.DIHEDRAL>
-1.56278

>  <SCORE.INTRA.DIHEDRAL.0>
8.34559

>  <SCORE.INTRA.POLAR>
0

>  <SCORE.INTRA.POLAR.0>
0

>  <SCORE.INTRA.REPUL>
0

>  <SCORE.INTRA.REPUL.0>
0

>  <SCORE.INTRA.SOLV>
-0.28828

>  <SCORE.INTRA.SOLV.lig_0>
-48.829

>  <SCORE.INTRA.VDW>
-0.620086

>  <SCORE.INTRA.VDW.0>
-1.77092

>  <SCORE.INTRA.norm>
-0.0572451

>  <SCORE.RESTR>
0

>  <SCORE.RESTR.CAVITY>
0

>  <SCORE.RESTR.norm>
0

>  <SCORE.SYSTEM>
0

>  <SCORE.SYSTEM.CONST>
0

>  <SCORE.SYSTEM.DIHEDRAL>
0

>  <SCORE.SYSTEM.SOLV>
0

>  <SCORE.SYSTEM.norm>
0

>  <SCORE.heavy>
27

>  <SCORE.norm>
-0.504444

>  <RMSD>
5.053

$$$$
ligand
 OpenBabel11021811503D
libRbt.so/2013.1/901 2013/11/27
 27 29  0  0  0  0  0  0  0  0999 V2000
   44.6279  -27.5744 -104.3938 N   0  0  0  0  0  0  0  0  0  0  0  0
   45.2117  -28.9076 -104.5796 C   0  0  2  0  0  0  0  0  0  0  0  0
   45.0461  -29.3351 -106.0227 C   0  0  0  0  0  0  0  0  0  0  0  0
   46.0283  -29.5205 -106.7253 O   0  0  0  0  0  0  0  0  0  0  0  0
   44.5346  -29.9454 -103.6741 C   0  0  0  0  0  0  0  0  0  0  0  0
   45.1018  -31.3354 -103.9257 C   0  0  0  0  0  0  0  0  0  0  0  0
   46.9349  -31.3860 -103.9036 S   0  0  2  0  0  0  0  0  0  0  0  0
   47.3228  -33.1531 -103.6882 C   0  0  0  0  0  0  0  0  0  0  0  0
   47.1067  -30.8502 -102.2029 C   0  0  0  0  0  0  0  0  0  0  0  0
   48.5350  -30.6437 -101.7741 C   0  0  1  0  0  0  0  0  0  0  0  0
   49.1494  -29.7386 -102.7069 O   0  0  0  0  0  0  0  0  0  0  0  0
   48.3894  -29.9038 -100.5056 C   0  0  1  0  0  0  0  0  0  0  0  0
   48.4870  -30.8102  -99.4082 O   0  0  0  0  0  0  0  0  0  0  0  0
   49.5784  -28.9938 -100.5243 C   0  0  1  0  0  0  0  0  0  0  0  0
   50.7266  -29.6565  -99.9552 O   0  0  0  0  0  0  0  0  0  0  0  0
   49.8464  -28.6663 -102.0240 C   0  0  2  0  0  0  0  0  0  0  0  0
   43.9354  -29.5294 -106.4848 O   0  0  0  0  0  0  0  0  0  0  0  0
   49.9176  -24.7338 -105.5916 N   0  0  0  0  0  0  0  0  0  0  0  0
   50.7862  -25.7690 -105.4836 C   0  0  0  0  0  0  0  0  0  0  0  0
   50.6307  -26.7318 -104.5509 N   0  0  0  0  0  0  0  0  0  0  0  0
   49.6518  -26.6466 -103.6355 C   0  0  0  0  0  0  0  0  0  0  0  0
   48.7284  -25.5388 -103.6876 C   0  0  0  0  0  0  0  0  0  0  0  0
   48.8961  -24.5729 -104.7240 C   0  0  0  0  0  0  0  0  0  0  0  0
   48.0430  -23.4941 -104.8382 N   0  0  0  0  0  0  0  0  0  0  0  0
   47.8678  -25.6893 -102.6739 N   0  0  0  0  0  0  0  0  0  0  0  0
   48.1792  -26.7637 -102.0119 C   0  0  0  0  0  0  0  0  0  0  0  0
   49.2667  -27.4011 -102.5620 N   0  0  0  0  0  0  0  0  0  0  0  0
  2  1  1  6  0  0  0
  2  3  1  0  0  0  0
  2  5  1  0  0  0  0
  3  4  1  0  0  0  0
  3 17  1  0  0  0  0
  5  6  1  0  0  0  0
  7  6  1  1  0  0  0
  7  8  1  0  0  0  0
  7  9  1  0  0  0  0
 10  9  1  6  0  0  0
 10 11  1  0  0  0  0
 10 12  1  0  0  0  0
 11 16  1  0  0  0  0
 12 13  1  1  0  0  0
 12 14  1  0  0  0  0
 14 15  1  6  0  0  0
 14 16  1  0  0  0  0
 16 27  1  6  0  0  0
 18 19  2  0  0  0  0
 18 23  1  0  0  0  0
 19 20  1  0  0  0  0
 20 21  2  0  0  0  0
 21 22  1  0  0  0  0
 21 27  1  0  0  0  0
 22 23  2  0  0  0  0
 22 25  1  0  0  0  0
 23 24  1  0  0  0  0
 25 26  2  0  0  0  0
 26 27  1  0  0  0  0
M  END
>  <CHROM.1>
116.43940748,177.20769684,49.63814979,162.50521953,-175.44597551,54.15341648
-90.00560563,47.79478287,-28.65286888,-103.42450220,2.26569832,0.70141613
2.55664820

>  <Name>
ligand

>  <RI>
0

>  <Rbt.Current_Directory>
/home/itssahil/PROJECTS/Mol_Feturizer/New_Systems/rnas/4L81

>  <Rbt.Executable>
rbdock ($Id: //depot/dev/client3/rdock/2013.1/src/exe/rbdock.cxx#4 $)

>  <Rbt.Library>
libRbt.so (2013.1, Build901 2013/11/27)

>  <Rbt.Parameter_File>
/export/apps/rDock/src/rDock_2013.1_src/data/scripts/dock_solv.prm

>  <Rbt.Receptor>
prm/pocket_docking_4.prm

>  <SCORE>
-7.81264

>  <SCORE.INTER>
-5.05538

>  <SCORE.INTER.CONST>
1

>  <SCORE.INTER.POLAR>
0

>  <SCORE.INTER.ROT>
7

>  <SCORE.INTER.SOLV>
12.1953

>  <SCORE.INTER.VDW>
-15.702

>  <SCORE.INTER.norm>
-0.187236

>  <SCORE.INTRA>
-2.75726

>  <SCORE.INTRA.DIHEDRAL>
-3.93252

>  <SCORE.INTRA.DIHEDRAL.0>
8.34559

>  <SCORE.INTRA.POLAR>
0

>  <SCORE.INTRA.POLAR.0>
0

>  <SCORE.INTRA.REPUL>
0

>  <SCORE.INTRA.REPUL.0>
0

>  <SCORE.INTRA.SOLV>
-1.06291

>  <SCORE.INTRA.SOLV.lig_0>
-48.829

>  <SCORE.INTRA.VDW>
-0.259545

>  <SCORE.INTRA.VDW.0>
-1.77092

>  <SCORE.INTRA.norm>
-0.102121

>  <SCORE.RESTR>
0

>  <SCORE.RESTR.CAVITY>
0

>  <SCORE.RESTR.norm>
0

>  <SCORE.SYSTEM>
0

>  <SCORE.SYSTEM.CONST>
0

>  <SCORE.SYSTEM.DIHEDRAL>
0

>  <SCORE.SYSTEM.SOLV>
0

>  <SCORE.SYSTEM.norm>
0

>  <SCORE.heavy>
27

>  <SCORE.norm>
-0.289357

>  <RMSD>
5.060

$$$$
ligand
 OpenBabel11021811503D
libRbt.so/2013.1/901 2013/11/27
 27 29  0  0  0  0  0  0  0  0999 V2000
   49.2288  -31.4728 -101.5475 N   0  0  0  0  0  0  0  0  0  0  0  0
   48.5090  -31.3237 -102.8173 C   0  0  2  0  0  0  0  0  0  0  0  0
   47.5630  -32.4915 -103.0019 C   0  0  0  0  0  0  0  0  0  0  0  0
   46.3545  -32.3148 -102.9667 O   0  0  0  0  0  0  0  0  0  0  0  0
   49.4777  -31.2774 -104.0068 C   0  0  0  0  0  0  0  0  0  0  0  0
   49.9955  -29.8633 -104.2284 C   0  0  0  0  0  0  0  0  0  0  0  0
   48.6756  -28.5911 -104.1789 S   0  0  2  0  0  0  0  0  0  0  0  0
   47.6204  -28.9971 -105.6077 C   0  0  0  0  0  0  0  0  0  0  0  0
   49.6583  -27.2871 -104.9155 C   0  0  0  0  0  0  0  0  0  0  0  0
   49.0310  -25.9225 -104.8100 C   0  0  1  0  0  0  0  0  0  0  0  0
   47.6559  -26.0365 -105.2140 O   0  0  0  0  0  0  0  0  0  0  0  0
   49.0217  -25.6811 -103.3542 C   0  0  1  0  0  0  0  0  0  0  0  0
   50.1471  -24.8817 -102.9940 O   0  0  0  0  0  0  0  0  0  0  0  0
   47.7582  -24.9002 -103.1644 C   0  0  1  0  0  0  0  0  0  0  0  0
   48.0059  -23.4914 -103.3523 O   0  0  0  0  0  0  0  0  0  0  0  0
   46.7678  -25.4127 -104.2527 C   0  0  2  0  0  0  0  0  0  0  0  0
   47.9976  -33.6089 -103.2197 O   0  0  0  0  0  0  0  0  0  0  0  0
   45.3676  -29.3536 -100.9806 N   0  0  0  0  0  0  0  0  0  0  0  0
   46.5058  -28.6177 -100.9504 C   0  0  0  0  0  0  0  0  0  0  0  0
   46.7225  -27.6093 -101.8205 N   0  0  0  0  0  0  0  0  0  0  0  0
   45.8486  -27.3579 -102.8087 C   0  0  0  0  0  0  0  0  0  0  0  0
   44.6422  -28.1441 -102.9038 C   0  0  0  0  0  0  0  0  0  0  0  0
   44.4267  -29.1640 -101.9298 C   0  0  0  0  0  0  0  0  0  0  0  0
   43.2901  -29.9463 -101.9559 N   0  0  0  0  0  0  0  0  0  0  0  0
   43.9584  -27.6982 -103.9642 N   0  0  0  0  0  0  0  0  0  0  0  0
   44.6276  -26.7341 -104.5230 C   0  0  0  0  0  0  0  0  0  0  0  0
   45.7988  -26.4736 -103.8506 N   0  0  0  0  0  0  0  0  0  0  0  0
  2  1  1  1  0  0  0
  2  3  1  0  0  0  0
  2  5  1  0  0  0  0
  3  4  1  0  0  0  0
  3 17  1  0  0  0  0
  5  6  1  0  0  0  0
  7  6  1  6  0  0  0
  7  8  1  0  0  0  0
  7  9  1  0  0  0  0
 10  9  1  1  0  0  0
 10 11  1  0  0  0  0
 10 12  1  0  0  0  0
 11 16  1  0  0  0  0
 12 13  1  6  0  0  0
 12 14  1  0  0  0  0
 14 15  1  6  0  0  0
 14 16  1  0  0  0  0
 16 27  1  1  0  0  0
 18 19  2  0  0  0  0
 18 23  1  0  0  0  0
 19 20  1  0  0  0  0
 20 21  2  0  0  0  0
 21 22  1  0  0  0  0
 21 27  1  0  0  0  0
 22 23  2  0  0  0  0
 22 25  1  0  0  0  0
 23 24  1  0  0  0  0
 25 26  2  0  0  0  0
 26 27  1  0  0  0  0
M  END
>  <CHROM.1>
112.14875158,-84.98709104,-46.12002484,-64.39072597,-167.88753623,-47.34352380
92.41454649,47.33630369,-28.33640006,-103.37515482,-1.66733181,0.28089445
-0.14173389

>  <Name>
ligand

>  <RI>
0

>  <Rbt.Current_Directory>
/home/itssahil/PROJECTS/Mol_Feturizer/New_Systems/rnas/4L81

>  <Rbt.Executable>
rbdock ($Id: //depot/dev/client3/rdock/2013.1/src/exe/rbdock.cxx#4 $)

>  <Rbt.Library>
libRbt.so (2013.1, Build901 2013/11/27)

>  <Rbt.Parameter_File>
/export/apps/rDock/src/rDock_2013.1_src/data/scripts/dock_solv.prm

>  <Rbt.Receptor>
prm/pocket_docking_3.prm

>  <SCORE>
-9.35154

>  <SCORE.INTER>
-6.52316

>  <SCORE.INTER.CONST>
1

>  <SCORE.INTER.POLAR>
0

>  <SCORE.INTER.ROT>
7

>  <SCORE.INTER.SOLV>
16.1698

>  <SCORE.INTER.VDW>
-18.0054

>  <SCORE.INTER.norm>
-0.241599

>  <SCORE.INTRA>
-2.92151

>  <SCORE.INTRA.DIHEDRAL>
-0.472728

>  <SCORE.INTRA.DIHEDRAL.0>
8.34559

>  <SCORE.INTRA.POLAR>
0

>  <SCORE.INTRA.POLAR.0>
0

>  <SCORE.INTRA.REPUL>
0

>  <SCORE.INTRA.REPUL.0>
0

>  <SCORE.INTRA.SOLV>
0.0985494

>  <SCORE.INTRA.SOLV.lig_0>
-48.829

>  <SCORE.INTRA.VDW>
-2.73442

>  <SCORE.INTRA.VDW.0>
-1.77092

>  <SCORE.INTRA.norm>
-0.108204

>  <SCORE.RESTR>
0.0931325

>  <SCORE.RESTR.CAVITY>
0.0931325

>  <SCORE.RESTR.norm>
0.00344935

>  <SCORE.SYSTEM>
0

>  <SCORE.SYSTEM.CONST>
0

>  <SCORE.SYSTEM.DIHEDRAL>
0

>  <SCORE.SYSTEM.SOLV>
0

>  <SCORE.SYSTEM.norm>
0

>  <SCORE.heavy>
27

>  <SCORE.norm>
-0.346353

>  <RMSD>
5.068

$$$$
ligand
 OpenBabel11021811503D
libRbt.so/2013.1/901 2013/11/27
 27 29  0  0  0  0  0  0  0  0999 V2000
   45.9962  -25.4099 -106.7093 N   0  0  0  0  0  0  0  0  0  0  0  0
   45.2093  -26.0523 -105.6506 C   0  0  2  0  0  0  0  0  0  0  0  0
   45.8941  -25.8456 -104.3161 C   0  0  0  0  0  0  0  0  0  0  0  0
   45.2675  -25.9826 -103.2762 O   0  0  0  0  0  0  0  0  0  0  0  0
   45.0580  -27.5586 -105.9024 C   0  0  0  0  0  0  0  0  0  0  0  0
   44.0668  -28.1740 -104.9248 C   0  0  0  0  0  0  0  0  0  0  0  0
   44.6585  -29.7435 -104.1830 S   0  0  2  0  0  0  0  0  0  0  0  0
   43.5242  -30.0234 -102.7850 C   0  0  0  0  0  0  0  0  0  0  0  0
   46.0296  -29.0126 -103.2917 C   0  0  0  0  0  0  0  0  0  0  0  0
   46.4576  -29.8033 -102.0841 C   0  0  1  0  0  0  0  0  0  0  0  0
   46.4807  -31.1930 -102.4520 O   0  0  0  0  0  0  0  0  0  0  0  0
   47.8641  -29.3925 -101.9088 C   0  0  1  0  0  0  0  0  0  0  0  0
   47.9444  -28.3697 -100.9174 O   0  0  0  0  0  0  0  0  0  0  0  0
   48.5062  -30.6468 -101.4024 C   0  0  1  0  0  0  0  0  0  0  0  0
   48.3951  -30.7230  -99.9660 O   0  0  0  0  0  0  0  0  0  0  0  0
   47.7240  -31.8252 -102.0564 C   0  0  2  0  0  0  0  0  0  0  0  0
   47.0810  -25.5741 -104.2674 O   0  0  0  0  0  0  0  0  0  0  0  0
   51.9029  -33.6092 -104.8046 N   0  0  0  0  0  0  0  0  0  0  0  0
   51.8992  -33.0715 -103.5600 C   0  0  0  0  0  0  0  0  0  0  0  0
   50.7546  -32.6932 -102.9536 N   0  0  0  0  0  0  0  0  0  0  0  0
   49.5816  -32.7563 -103.6044 C   0  0  0  0  0  0  0  0  0  0  0  0
   49.5446  -33.2840 -104.9470 C   0  0  0  0  0  0  0  0  0  0  0  0
   50.7702  -33.7239 -105.5298 C   0  0  0  0  0  0  0  0  0  0  0  0
   50.8053  -34.2481 -106.8060 N   0  0  0  0  0  0  0  0  0  0  0  0
   48.2731  -33.2313 -105.3611 N   0  0  0  0  0  0  0  0  0  0  0  0
   47.5421  -32.7205 -104.4155 C   0  0  0  0  0  0  0  0  0  0  0  0
   48.2921  -32.4144 -103.3039 N   0  0  0  0  0  0  0  0  0  0  0  0
  2  1  1  6  0  0  0
  2  3  1  0  0  0  0
  2  5  1  0  0  0  0
  3  4  1  0  0  0  0
  3 17  1  0  0  0  0
  5  6  1  0  0  0  0
  7  6  1  6  0  0  0
  7  8  1  0  0  0  0
  7  9  1  0  0  0  0
 10  9  1  6  0  0  0
 10 11  1  0  0  0  0
 10 12  1  0  0  0  0
 11 16  1  0  0  0  0
 12 13  1  1  0  0  0
 12 14  1  0  0  0  0
 14 15  1  1  0  0  0
 14 16  1  0  0  0  0
 16 27  1  6  0  0  0
 18 19  2  0  0  0  0
 18 23  1  0  0  0  0
 19 20  1  0  0  0  0
 20 21  2  0  0  0  0
 21 22  1  0  0  0  0
 21 27  1  0  0  0  0
 22 23  2  0  0  0  0
 22 25  1  0  0  0  0
 23 24  1  0  0  0  0
 25 26  2  0  0  0  0
 26 27  1  0  0  0  0
M  END
>  <CHROM.1>
161.01850364,-171.19160608,-134.45303754,166.04207509,155.01478421,43.41220105
157.87438700,47.40639293,-30.14787447,-103.72658172,-3.07282487,-0.89586754
1.63372401

>  <Name>
ligand

>  <RI>
0

>  <Rbt.Current_Directory>
/home/itssahil/PROJECTS/Mol_Feturizer/New_Systems/rnas/4L81

>  <Rbt.Executable>
rbdock ($Id: //depot/dev/client3/rdock/2013.1/src/exe/rbdock.cxx#4 $)

>  <Rbt.Library>
libRbt.so (2013.1, Build901 2013/11/27)

>  <Rbt.Parameter_File>
/export/apps/rDock/src/rDock_2013.1_src/data/scripts/dock_solv.prm

>  <Rbt.Receptor>
prm/pocket_docking_6.prm

>  <SCORE>
-10.2241

>  <SCORE.INTER>
-10.6582

>  <SCORE.INTER.CONST>
1

>  <SCORE.INTER.POLAR>
0

>  <SCORE.INTER.ROT>
7

>  <SCORE.INTER.SOLV>
12.4489

>  <SCORE.INTER.VDW>
-19.5218

>  <SCORE.INTER.norm>
-0.394747

>  <SCORE.INTRA>
0.43411

>  <SCORE.INTRA.DIHEDRAL>
1.7051

>  <SCORE.INTRA.DIHEDRAL.0>
8.34559

>  <SCORE.INTRA.POLAR>
0

>  <SCORE.INTRA.POLAR.0>
0

>  <SCORE.INTRA.REPUL>
0

>  <SCORE.INTRA.REPUL.0>
0

>  <SCORE.INTRA.SOLV>
-1.19283

>  <SCORE.INTRA.SOLV.lig_0>
-48.829

>  <SCORE.INTRA.VDW>
0.177974

>  <SCORE.INTRA.VDW.0>
-1.77092

>  <SCORE.INTRA.norm>
0.0160781

>  <SCORE.RESTR>
0

>  <SCORE.RESTR.CAVITY>
0

>  <SCORE.RESTR.norm>
0

>  <SCORE.SYSTEM>
0

>  <SCORE.SYSTEM.CONST>
0

>  <SCORE.SYSTEM.DIHEDRAL>
0

>  <SCORE.SYSTEM.SOLV>
0

>  <SCORE.SYSTEM.norm>
0

>  <SCORE.heavy>
27

>  <SCORE.norm>
-0.378669

>  <RMSD>
5.071

$$$$
ligand
 OpenBabel11021811503D
libRbt.so/2013.1/901 2013/11/27
 27 29  0  0  0  0  0  0  0  0999 V2000
   45.9322  -27.4420 -102.5246 N   0  0  0  0  0  0  0  0  0  0  0  0
   45.5930  -28.1450 -103.7669 C   0  0  2  0  0  0  0  0  0  0  0  0
   44.8840  -27.1942 -104.7081 C   0  0  0  0  0  0  0  0  0  0  0  0
   45.2353  -27.1091 -105.8752 O   0  0  0  0  0  0  0  0  0  0  0  0
   44.6795  -29.3483 -103.4966 C   0  0  0  0  0  0  0  0  0  0  0  0
   45.4924  -30.5561 -103.0525 C   0  0  0  0  0  0  0  0  0  0  0  0
   45.6531  -30.6926 -101.2307 S   0  0  2  0  0  0  0  0  0  0  0  0
   44.4918  -29.4420 -100.5926 C   0  0  0  0  0  0  0  0  0  0  0  0
   47.1727  -29.7511 -101.1157 C   0  0  0  0  0  0  0  0  0  0  0  0
   48.3840  -30.4924 -101.6157 C   0  0  1  0  0  0  0  0  0  0  0  0
   48.3128  -30.5369 -103.0509 O   0  0  0  0  0  0  0  0  0  0  0  0
   49.4887  -29.5738 -101.2789 C   0  0  1  0  0  0  0  0  0  0  0  0
   50.0942  -29.9816 -100.0531 O   0  0  0  0  0  0  0  0  0  0  0  0
   50.4415  -29.7844 -102.4146 C   0  0  1  0  0  0  0  0  0  0  0  0
   51.3282  -30.8858 -102.1282 O   0  0  0  0  0  0  0  0  0  0  0  0
   49.5631  -30.1221 -103.6565 C   0  0  2  0  0  0  0  0  0  0  0  0
   43.9381  -26.5320 -104.3188 O   0  0  0  0  0  0  0  0  0  0  0  0
   50.1875  -25.0735 -105.1795 N   0  0  0  0  0  0  0  0  0  0  0  0
   50.7788  -25.7016 -104.1336 C   0  0  0  0  0  0  0  0  0  0  0  0
   50.5652  -27.0093 -103.8780 N   0  0  0  0  0  0  0  0  0  0  0  0
   49.6835  -27.7141 -104.6057 C   0  0  0  0  0  0  0  0  0  0  0  0
   49.0000  -27.0741 -105.7037 C   0  0  0  0  0  0  0  0  0  0  0  0
   49.2970  -25.7050 -105.9733 C   0  0  0  0  0  0  0  0  0  0  0  0
   48.6870  -25.0345 -107.0140 N   0  0  0  0  0  0  0  0  0  0  0  0
   48.1859  -27.9842 -106.2512 N   0  0  0  0  0  0  0  0  0  0  0  0
   48.2992  -29.1007 -105.5954 C   0  0  0  0  0  0  0  0  0  0  0  0
   49.2140  -28.9980 -104.5735 N   0  0  0  0  0  0  0  0  0  0  0  0
  2  1  1  1  0  0  0
  2  3  1  0  0  0  0
  2  5  1  0  0  0  0
  3  4  1  0  0  0  0
  3 17  1  0  0  0  0
  5  6  1  0  0  0  0
  7  6  1  6  0  0  0
  7  8  1  0  0  0  0
  7  9  1  0  0  0  0
 10  9  1  1  0  0  0
 10 11  1  0  0  0  0
 10 12  1  0  0  0  0
 11 16  1  0  0  0  0
 12 13  1  1  0  0  0
 12 14  1  0  0  0  0
 14 15  1  1  0  0  0
 14 16  1  0  0  0  0
 16 27  1  6  0  0  0
 18 19  2  0  0  0  0
 18 23  1  0  0  0  0
 19 20  1  0  0  0  0
 20 21  2  0  0  0  0
 21 22  1  0  0  0  0
 21 27  1  0  0  0  0
 22 23  2  0  0  0  0
 22 25  1  0  0  0  0
 23 24  1  0  0  0  0
 25 26  2  0  0  0  0
 26 27  1  0  0  0  0
M  END
>  <CHROM.1>
131.61706121,-82.08926620,92.69973304,9.84343122,-73.24282887,73.60463054
122.88155943,47.79652429,-28.55611219,-103.45700046,1.96783830,-0.00982968
2.33226324

>  <Name>
ligand

>  <RI>
0

>  <Rbt.Current_Directory>
/home/itssahil/PROJECTS/Mol_Feturizer/New_Systems/rnas/4L81

>  <Rbt.Executable>
rbdock ($Id: //depot/dev/client3/rdock/2013.1/src/exe/rbdock.cxx#4 $)

>  <Rbt.Library>
libRbt.so (2013.1, Build901 2013/11/27)

>  <Rbt.Parameter_File>
/export/apps/rDock/src/rDock_2013.1_src/data/scripts/dock_solv.prm

>  <Rbt.Receptor>
prm/pocket_docking_3.prm

>  <SCORE>
-6.49738

>  <SCORE.INTER>
-9.53635

>  <SCORE.INTER.CONST>
1

>  <SCORE.INTER.POLAR>
0

>  <SCORE.INTER.ROT>
7

>  <SCORE.INTER.SOLV>
9.79368

>  <SCORE.INTER.VDW>
-17.8888

>  <SCORE.INTER.norm>
-0.353198

>  <SCORE.INTRA>
3.03897

>  <SCORE.INTRA.DIHEDRAL>
3.74258

>  <SCORE.INTRA.DIHEDRAL.0>
8.34559

>  <SCORE.INTRA.POLAR>
0

>  <SCORE.INTRA.POLAR.0>
0

>  <SCORE.INTRA.REPUL>
0

>  <SCORE.INTRA.REPUL.0>
0

>  <SCORE.INTRA.SOLV>
3.29372

>  <SCORE.INTRA.SOLV.lig_0>
-48.829

>  <SCORE.INTRA.VDW>
-0.479179

>  <SCORE.INTRA.VDW.0>
-1.77092

>  <SCORE.INTRA.norm>
0.112555

>  <SCORE.RESTR>
0

>  <SCORE.RESTR.CAVITY>
0

>  <SCORE.RESTR.norm>
0

>  <SCORE.SYSTEM>
0

>  <SCORE.SYSTEM.CONST>
0

>  <SCORE.SYSTEM.DIHEDRAL>
0

>  <SCORE.SYSTEM.SOLV>
0

>  <SCORE.SYSTEM.norm>
0

>  <SCORE.heavy>
27

>  <SCORE.norm>
-0.240644

>  <RMSD>
5.077

$$$$
ligand
 OpenBabel11021811503D
libRbt.so/2013.1/901 2013/11/27
 27 29  0  0  0  0  0  0  0  0999 V2000
   48.5712  -22.3904 -105.4634 N   0  0  0  0  0  0  0  0  0  0  0  0
   49.0245  -23.6403 -104.8431 C   0  0  2  0  0  0  0  0  0  0  0  0
   50.1385  -24.2417 -105.6739 C   0  0  0  0  0  0  0  0  0  0  0  0
   50.0378  -24.2949 -106.8903 O   0  0  0  0  0  0  0  0  0  0  0  0
   47.8808  -24.6581 -104.7361 C   0  0  0  0  0  0  0  0  0  0  0  0
   48.2069  -25.7329 -103.7088 C   0  0  0  0  0  0  0  0  0  0  0  0
   47.0540  -27.1582 -103.7589 S   0  0  2  0  0  0  0  0  0  0  0  0
   45.4100  -26.4007 -103.5511 C   0  0  0  0  0  0  0  0  0  0  0  0
   47.3407  -27.6777 -102.0687 C   0  0  0  0  0  0  0  0  0  0  0  0
   46.2650  -28.5774 -101.5206 C   0  0  1  0  0  0  0  0  0  0  0  0
   46.0739  -29.6551 -102.4528 O   0  0  0  0  0  0  0  0  0  0  0  0
   46.9080  -29.1631 -100.3285 C   0  0  1  0  0  0  0  0  0  0  0  0
   46.5055  -28.4429  -99.1645 O   0  0  0  0  0  0  0  0  0  0  0  0
   46.3336  -30.5456 -100.2982 C   0  0  1  0  0  0  0  0  0  0  0  0
   45.0851  -30.5547  -99.5755 O   0  0  0  0  0  0  0  0  0  0  0  0
   46.0868  -30.9419 -101.7848 C   0  0  2  0  0  0  0  0  0  0  0  0
   51.1564  -24.6464 -105.1401 O   0  0  0  0  0  0  0  0  0  0  0  0
   51.1924  -32.3138 -102.2832 N   0  0  0  0  0  0  0  0  0  0  0  0
   50.6591  -31.4055 -101.4298 C   0  0  0  0  0  0  0  0  0  0  0  0
   49.3300  -31.1788 -101.3741 N   0  0  0  0  0  0  0  0  0  0  0  0
   48.4950  -31.7876 -102.2317 C   0  0  0  0  0  0  0  0  0  0  0  0
   49.0248  -32.7322 -103.1854 C   0  0  0  0  0  0  0  0  0  0  0  0
   50.4291  -32.9832 -103.1727 C   0  0  0  0  0  0  0  0  0  0  0  0
   51.0009  -33.8816 -104.0507 N   0  0  0  0  0  0  0  0  0  0  0  0
   47.9963  -33.1835 -103.9129 N   0  0  0  0  0  0  0  0  0  0  0  0
   46.9055  -32.6057 -103.5057 C   0  0  0  0  0  0  0  0  0  0  0  0
   47.1485  -31.7393 -102.4655 N   0  0  0  0  0  0  0  0  0  0  0  0
  2  1  1  6  0  0  0
  2  3  1  0  0  0  0
  2  5  1  0  0  0  0
  3  4  1  0  0  0  0
  3 17  1  0  0  0  0
  5  6  1  0  0  0  0
  7  6  1  1  0  0  0
  7  8  1  0  0  0  0
  7  9  1  0  0  0  0
 10  9  1  6  0  0  0
 10 11  1  0  0  0  0
 10 12  1  0  0  0  0
 11 16  1  0  0  0  0
 12 13  1  1  0  0  0
 12 14  1  0  0  0  0
 14 15  1  1  0  0  0
 14 16  1  0  0  0  0
 16 27  1  6  0  0  0
 18 19  2  0  0  0  0
 18 23  1  0  0  0  0
 19 20  1  0  0  0  0
 20 21  2  0  0  0  0
 21 22  1  0  0  0  0
 21 27  1  0  0  0  0
 22 23  2  0  0  0  0
 22 25  1  0  0  0  0
 23 24  1  0  0  0  0
 25 26  2  0  0  0  0
 26 27  1  0  0  0  0
M  END
>  <CHROM.1>
-44.89980481,-161.11606154,-168.55346398,-55.46275629,161.47894276,51.77285336
85.75237415,48.07093001,-28.79824880,-102.95001589,1.47119935,0.63650352
-0.32012972

>  <Name>
ligand

>  <RI>
0

>  <Rbt.Current_Directory>
/home/itssahil/PROJECTS/Mol_Feturizer/New_Systems/rnas/4L81

>  <Rbt.Executable>
rbdock ($Id: //depot/dev/client3/rdock/2013.1/src/exe/rbdock.cxx#4 $)

>  <Rbt.Library>
libRbt.so (2013.1, Build901 2013/11/27)

>  <Rbt.Parameter_File>
/export/apps/rDock/src/rDock_2013.1_src/data/scripts/dock_solv.prm

>  <Rbt.Receptor>
prm/pocket_docking_7.prm

>  <SCORE>
-14.8466

>  <SCORE.INTER>
-12.7073

>  <SCORE.INTER.CONST>
1

>  <SCORE.INTER.POLAR>
0

>  <SCORE.INTER.ROT>
7

>  <SCORE.INTER.SOLV>
11.0059

>  <SCORE.INTER.VDW>
-20.4068

>  <SCORE.INTER.norm>
-0.470641

>  <SCORE.INTRA>
-2.13932

>  <SCORE.INTRA.DIHEDRAL>
-2.11879

>  <SCORE.INTRA.DIHEDRAL.0>
8.34559

>  <SCORE.INTRA.POLAR>
0

>  <SCORE.INTRA.POLAR.0>
0

>  <SCORE.INTRA.REPUL>
0

>  <SCORE.INTRA.REPUL.0>
0

>  <SCORE.INTRA.SOLV>
-1.23713

>  <SCORE.INTRA.SOLV.lig_0>
-48.829

>  <SCORE.INTRA.VDW>
-0.461361

>  <SCORE.INTRA.VDW.0>
-1.77092

>  <SCORE.INTRA.norm>
-0.0792341

>  <SCORE.RESTR>
0

>  <SCORE.RESTR.CAVITY>
0

>  <SCORE.RESTR.norm>
0

>  <SCORE.SYSTEM>
0

>  <SCORE.SYSTEM.CONST>
0

>  <SCORE.SYSTEM.DIHEDRAL>
0

>  <SCORE.SYSTEM.SOLV>
0

>  <SCORE.SYSTEM.norm>
0

>  <SCORE.heavy>
27

>  <SCORE.norm>
-0.549875

>  <RMSD>
5.082

$$$$
ligand
 OpenBabel11021811503D
libRbt.so/2013.1/901 2013/11/27
 27 29  0  0  0  0  0  0  0  0999 V2000
   46.9815  -30.0999 -100.9645 N   0  0  0  0  0  0  0  0  0  0  0  0
   45.5291  -29.9937 -101.1432 C   0  0  2  0  0  0  0  0  0  0  0  0
   45.0712  -31.0063 -102.1717 C   0  0  0  0  0  0  0  0  0  0  0  0
   43.8991  -31.3477 -102.2184 O   0  0  0  0  0  0  0  0  0  0  0  0
   45.1250  -28.5903 -101.6148 C   0  0  0  0  0  0  0  0  0  0  0  0
   45.9597  -28.1607 -102.8130 C   0  0  0  0  0  0  0  0  0  0  0  0
   45.4337  -26.5546 -103.5253 S   0  0  2  0  0  0  0  0  0  0  0  0
   44.1016  -27.0035 -104.6844 C   0  0  0  0  0  0  0  0  0  0  0  0
   46.7888  -26.4247 -104.6896 C   0  0  0  0  0  0  0  0  0  0  0  0
   48.0085  -25.7451 -104.1263 C   0  0  1  0  0  0  0  0  0  0  0  0
   48.5614  -26.6006 -103.1118 O   0  0  0  0  0  0  0  0  0  0  0  0
   48.9511  -25.7770 -105.2613 C   0  0  1  0  0  0  0  0  0  0  0  0
   48.9177  -24.5264 -105.9471 O   0  0  0  0  0  0  0  0  0  0  0  0
   50.2726  -25.9506 -104.5788 C   0  0  1  0  0  0  0  0  0  0  0  0
   50.8220  -24.6672 -104.2151 O   0  0  0  0  0  0  0  0  0  0  0  0
   49.9876  -26.7866 -103.2951 C   0  0  2  0  0  0  0  0  0  0  0  0
   45.8595  -31.4629 -102.9810 O   0  0  0  0  0  0  0  0  0  0  0  0
   48.4171  -31.5537 -105.0291 N   0  0  0  0  0  0  0  0  0  0  0  0
   47.7963  -30.3620 -105.2087 C   0  0  0  0  0  0  0  0  0  0  0  0
   48.3262  -29.2091 -104.7492 N   0  0  0  0  0  0  0  0  0  0  0  0
   49.4514  -29.2170 -104.0161 C   0  0  0  0  0  0  0  0  0  0  0  0
   50.1240  -30.4688 -103.7651 C   0  0  0  0  0  0  0  0  0  0  0  0
   49.5589  -31.6571 -104.3165 C   0  0  0  0  0  0  0  0  0  0  0  0
   50.1556  -32.8865 -104.1236 N   0  0  0  0  0  0  0  0  0  0  0  0
   51.2002  -30.2000 -103.0167 N   0  0  0  0  0  0  0  0  0  0  0  0
   51.2431  -28.9222 -102.7826 C   0  0  0  0  0  0  0  0  0  0  0  0
   50.1947  -28.2618 -103.3796 N   0  0  0  0  0  0  0  0  0  0  0  0
  2  1  1  6  0  0  0
  2  3  1  0  0  0  0
  2  5  1  0  0  0  0
  3  4  1  0  0  0  0
  3 17  1  0  0  0  0
  5  6  1  0  0  0  0
  7  6  1  1  0  0  0
  7  8  1  0  0  0  0
  7  9  1  0  0  0  0
 10  9  1  6  0  0  0
 10 11  1  0  0  0  0
 10 12  1  0  0  0  0
 11 16  1  0  0  0  0
 12 13  1  1  0  0  0
 12 14  1  0  0  0  0
 14 15  1  1  0  0  0
 14 16  1  0  0  0  0
 16 27  1  6  0  0  0
 18 19  2  0  0  0  0
 18 23  1  0  0  0  0
 19 20  1  0  0  0  0
 20 21  2  0  0  0  0
 21 22  1  0  0  0  0
 21 27  1  0  0  0  0
 22 23  2  0  0  0  0
 22 25  1  0  0  0  0
 23 24  1  0  0  0  0
 25 26  2  0  0  0  0
 26 27  1  0  0  0  0
M  END
>  <CHROM.1>
160.14236373,50.29326270,174.91235881,-85.81594678,-88.60522844,67.43055613
40.71211623,47.85353017,-28.49382431,-103.61629263,-2.17216380,0.21797351
-0.20601162

>  <Name>
ligand

>  <RI>
0

>  <Rbt.Current_Directory>
/home/itssahil/PROJECTS/Mol_Feturizer/New_Systems/rnas/4L81

>  <Rbt.Executable>
rbdock ($Id: //depot/dev/client3/rdock/2013.1/src/exe/rbdock.cxx#4 $)

>  <Rbt.Library>
libRbt.so (2013.1, Build901 2013/11/27)

>  <Rbt.Parameter_File>
/export/apps/rDock/src/rDock_2013.1_src/data/scripts/dock_solv.prm

>  <Rbt.Receptor>
prm/pocket_docking_3.prm

>  <SCORE>
-14.0483

>  <SCORE.INTER>
-9.79487

>  <SCORE.INTER.CONST>
1

>  <SCORE.INTER.POLAR>
0

>  <SCORE.INTER.ROT>
7

>  <SCORE.INTER.SOLV>
9.20363

>  <SCORE.INTER.VDW>
-17.8645

>  <SCORE.INTER.norm>
-0.362773

>  <SCORE.INTRA>
-4.25345

>  <SCORE.INTRA.DIHEDRAL>
-2.52033

>  <SCORE.INTRA.DIHEDRAL.0>
8.34559

>  <SCORE.INTRA.POLAR>
0

>  <SCORE.INTRA.POLAR.0>
0

>  <SCORE.INTRA.REPUL>
0

>  <SCORE.INTRA.REPUL.0>
0

>  <SCORE.INTRA.SOLV>
-0.439287

>  <SCORE.INTRA.SOLV.lig_0>
-48.829

>  <SCORE.INTRA.VDW>
-2.77364

>  <SCORE.INTRA.VDW.0>
-1.77092

>  <SCORE.INTRA.norm>
-0.157535

>  <SCORE.RESTR>
0

>  <SCORE.RESTR.CAVITY>
0

>  <SCORE.RESTR.norm>
0

>  <SCORE.SYSTEM>
0

>  <SCORE.SYSTEM.CONST>
0

>  <SCORE.SYSTEM.DIHEDRAL>
0

>  <SCORE.SYSTEM.SOLV>
0

>  <SCORE.SYSTEM.norm>
0

>  <SCORE.heavy>
27

>  <SCORE.norm>
-0.520308

>  <RMSD>
5.085

$$$$
ligand
 OpenBabel11021811503D
libRbt.so/2013.1/901 2013/11/27
 27 29  0  0  0  0  0  0  0  0999 V2000
   50.3252  -24.1100 -105.0990 N   0  0  0  0  0  0  0  0  0  0  0  0
   49.0506  -24.2006 -104.3781 C   0  0  2  0  0  0  0  0  0  0  0  0
   49.2721  -23.8712 -102.9168 C   0  0  0  0  0  0  0  0  0  0  0  0
   48.3348  -23.5166 -102.2179 O   0  0  0  0  0  0  0  0  0  0  0  0
   48.4477  -25.6080 -104.4833 C   0  0  0  0  0  0  0  0  0  0  0  0
   46.9869  -25.6044 -104.0557 C   0  0  0  0  0  0  0  0  0  0  0  0
   46.2297  -27.2748 -104.0456 S   0  0  2  0  0  0  0  0  0  0  0  0
   44.4704  -26.9573 -103.6942 C   0  0  0  0  0  0  0  0  0  0  0  0
   46.7738  -27.7062 -102.3944 C   0  0  0  0  0  0  0  0  0  0  0  0
   45.8497  -28.6571 -101.6811 C   0  0  1  0  0  0  0  0  0  0  0  0
   45.6293  -29.7873 -102.5419 O   0  0  0  0  0  0  0  0  0  0  0  0
   46.6810  -29.1388 -100.5611 C   0  0  1  0  0  0  0  0  0  0  0  0
   46.3717  -28.3981  -99.3816 O   0  0  0  0  0  0  0  0  0  0  0  0
   46.2261  -30.5572 -100.4080 C   0  0  1  0  0  0  0  0  0  0  0  0
   45.0825  -30.6256  -99.5312 O   0  0  0  0  0  0  0  0  0  0  0  0
   45.8273  -31.0378 -101.8356 C   0  0  2  0  0  0  0  0  0  0  0  0
   50.3781  -23.9887 -102.4189 O   0  0  0  0  0  0  0  0  0  0  0  0
   50.9024  -32.3639 -102.6623 N   0  0  0  0  0  0  0  0  0  0  0  0
   50.4104  -31.5174 -101.7247 C   0  0  0  0  0  0  0  0  0  0  0  0
   49.0857  -31.2972 -101.5922 N   0  0  0  0  0  0  0  0  0  0  0  0
   48.2110  -31.8469 -102.4503 C   0  0  0  0  0  0  0  0  0  0  0  0
   48.6948  -32.7227 -103.4902 C   0  0  0  0  0  0  0  0  0  0  0  0
   50.0978  -32.9717 -103.5597 C   0  0  0  0  0  0  0  0  0  0  0  0
   50.6270  -33.8065 -104.5229 N   0  0  0  0  0  0  0  0  0  0  0  0
   47.6331  -33.1244 -104.1989 N   0  0  0  0  0  0  0  0  0  0  0  0
   46.5632  -32.5778 -103.7029 C   0  0  0  0  0  0  0  0  0  0  0  0
   46.8552  -31.7848 -102.6178 N   0  0  0  0  0  0  0  0  0  0  0  0
  2  1  1  6  0  0  0
  2  3  1  0  0  0  0
  2  5  1  0  0  0  0
  3  4  1  0  0  0  0
  3 17  1  0  0  0  0
  5  6  1  0  0  0  0
  7  6  1  1  0  0  0
  7  8  1  0  0  0  0
  7  9  1  0  0  0  0
 10  9  1  6  0  0  0
 10 11  1  0  0  0  0
 10 12  1  0  0  0  0
 11 16  1  0  0  0  0
 12 13  1  1  0  0  0
 12 14  1  0  0  0  0
 14 15  1  1  0  0  0
 14 16  1  0  0  0  0
 16 27  1  6  0  0  0
 18 19  2  0  0  0  0
 18 23  1  0  0  0  0
 19 20  1  0  0  0  0
 20 21  2  0  0  0  0
 21 22  1  0  0  0  0
 21 27  1  0  0  0  0
 22 23  2  0  0  0  0
 22 25  1  0  0  0  0
 23 24  1  0  0  0  0
 25 26  2  0  0  0  0
 26 27  1  0  0  0  0
M  END
>  <CHROM.1>
159.23150436,-165.35200408,-176.06047886,-173.71429030,150.30496473,52.31354764
94.71719980,47.69778366,-28.88848253,-102.70417478,-1.54430312,-0.48639790
3.04659268

>  <Name>
ligand

>  <RI>
0

>  <Rbt.Current_Directory>
/home/itssahil/PROJECTS/Mol_Feturizer/New_Systems/rnas/4L81

>  <Rbt.Executable>
rbdock ($Id: //depot/dev/client3/rdock/2013.1/src/exe/rbdock.cxx#4 $)

>  <Rbt.Library>
libRbt.so (2013.1, Build901 2013/11/27)

>  <Rbt.Parameter_File>
/export/apps/rDock/src/rDock_2013.1_src/data/scripts/dock_solv.prm

>  <Rbt.Receptor>
prm/pocket_docking_5.prm

>  <SCORE>
-15.4674

>  <SCORE.INTER>
-13.8554

>  <SCORE.INTER.CONST>
1

>  <SCORE.INTER.POLAR>
0

>  <SCORE.INTER.ROT>
7

>  <SCORE.INTER.SOLV>
12.5017

>  <SCORE.INTER.VDW>
-21.6708

>  <SCORE.INTER.norm>
-0.513164

>  <SCORE.INTRA>
-1.61192

>  <SCORE.INTRA.DIHEDRAL>
-2.05841

>  <SCORE.INTRA.DIHEDRAL.0>
8.34559

>  <SCORE.INTRA.POLAR>
0

>  <SCORE.INTRA.POLAR.0>
0

>  <SCORE.INTRA.REPUL>
0

>  <SCORE.INTRA.REPUL.0>
0

>  <SCORE.INTRA.SOLV>
-1.22777

>  <SCORE.INTRA.SOLV.lig_0>
-48.829

>  <SCORE.INTRA.VDW>
0.0311619

>  <SCORE.INTRA.VDW.0>
-1.77092

>  <SCORE.INTRA.norm>
-0.0597009

>  <SCORE.RESTR>
0

>  <SCORE.RESTR.CAVITY>
0

>  <SCORE.RESTR.norm>
0

>  <SCORE.SYSTEM>
0

>  <SCORE.SYSTEM.CONST>
0

>  <SCORE.SYSTEM.DIHEDRAL>
0

>  <SCORE.SYSTEM.SOLV>
0

>  <SCORE.SYSTEM.norm>
0

>  <SCORE.heavy>
27

>  <SCORE.norm>
-0.572865

>  <RMSD>
5.091

$$$$
ligand
 OpenBabel11021811503D
libRbt.so/2013.1/901 2013/11/27
 27 29  0  0  0  0  0  0  0  0999 V2000
   50.5601  -23.9508 -104.1370 N   0  0  0  0  0  0  0  0  0  0  0  0
   49.1962  -23.4921 -104.4241 C   0  0  2  0  0  0  0  0  0  0  0  0
   48.6769  -22.6865 -103.2519 C   0  0  0  0  0  0  0  0  0  0  0  0
   47.9140  -21.7507 -103.4392 O   0  0  0  0  0  0  0  0  0  0  0  0
   48.2495  -24.6743 -104.6717 C   0  0  0  0  0  0  0  0  0  0  0  0
   48.2745  -25.6430 -103.4978 C   0  0  0  0  0  0  0  0  0  0  0  0
   47.1774  -27.0940 -103.7309 S   0  0  2  0  0  0  0  0  0  0  0  0
   45.4977  -26.3972 -103.6177 C   0  0  0  0  0  0  0  0  0  0  0  0
   47.3404  -27.7103 -102.0569 C   0  0  0  0  0  0  0  0  0  0  0  0
   46.2078  -28.6046 -101.6275 C   0  0  1  0  0  0  0  0  0  0  0  0
   46.0796  -29.6532 -102.6027 O   0  0  0  0  0  0  0  0  0  0  0  0
   46.7376  -29.2338 -100.4023 C   0  0  1  0  0  0  0  0  0  0  0  0
   46.2490  -28.5379  -99.2567 O   0  0  0  0  0  0  0  0  0  0  0  0
   46.1408  -30.6059 -100.4599 C   0  0  1  0  0  0  0  0  0  0  0  0
   44.8353  -30.6116  -99.8460 O   0  0  0  0  0  0  0  0  0  0  0  0
   46.0151  -30.9575 -101.9728 C   0  0  2  0  0  0  0  0  0  0  0  0
   48.9883  -22.9849 -102.1122 O   0  0  0  0  0  0  0  0  0  0  0  0
   51.1671  -32.2141 -102.2490 N   0  0  0  0  0  0  0  0  0  0  0  0
   50.5836  -31.2836 -101.4542 C   0  0  0  0  0  0  0  0  0  0  0  0
   49.2481  -31.0900 -101.4503 N   0  0  0  0  0  0  0  0  0  0  0  0
   48.4570  -31.7579 -102.3056 C   0  0  0  0  0  0  0  0  0  0  0  0
   49.0410  -32.7290 -103.1991 C   0  0  0  0  0  0  0  0  0  0  0  0
   50.4501  -32.9419 -103.1312 C   0  0  0  0  0  0  0  0  0  0  0  0
   51.0724  -33.8625 -103.9497 N   0  0  0  0  0  0  0  0  0  0  0  0
   48.0484  -33.2389 -103.9376 N   0  0  0  0  0  0  0  0  0  0  0  0
   46.9308  -32.6729 -103.5910 C   0  0  0  0  0  0  0  0  0  0  0  0
   47.1180  -31.7556 -102.5834 N   0  0  0  0  0  0  0  0  0  0  0  0
  2  1  1  1  0  0  0
  2  3  1  0  0  0  0
  2  5  1  0  0  0  0
  3  4  1  0  0  0  0
  3 17  1  0  0  0  0
  5  6  1  0  0  0  0
  7  6  1  1  0  0  0
  7  8  1  0  0  0  0
  7  9  1  0  0  0  0
 10  9  1  6  0  0  0
 10 11  1  0  0  0  0
 10 12  1  0  0  0  0
 11 16  1  0  0  0  0
 12 13  1  1  0  0  0
 12 14  1  0  0  0  0
 14 15  1  6  0  0  0
 14 16  1  0  0  0  0
 16 27  1  6  0  0  0
 18 19  2  0  0  0  0
 18 23  1  0  0  0  0
 19 20  1  0  0  0  0
 20 21  2  0  0  0  0
 21 22  1  0  0  0  0
 21 27  1  0  0  0  0
 22 23  2  0  0  0  0
 22 25  1  0  0  0  0
 23 24  1  0  0  0  0
 25 26  2  0  0  0  0
 26 27  1  0  0  0  0
M  END
>  <CHROM.1>
146.82342435,55.37566173,-179.39805805,-69.92554976,157.87122460,53.80527879
80.06994096,47.91731519,-28.62530001,-102.58482384,-1.58683605,-0.52124366
3.00824224

>  <Name>
ligand

>  <RI>
0

>  <Rbt.Current_Directory>
/home/itssahil/PROJECTS/Mol_Feturizer/New_Systems/rnas/4L81

>  <Rbt.Executable>
rbdock ($Id: //depot/dev/client3/rdock/2013.1/src/exe/rbdock.cxx#4 $)

>  <Rbt.Library>
libRbt.so (2013.1, Build901 2013/11/27)

>  <Rbt.Parameter_File>
/export/apps/rDock/src/rDock_2013.1_src/data/scripts/dock_solv.prm

>  <Rbt.Receptor>
prm/pocket_docking_5.prm

>  <SCORE>
-15.5235

>  <SCORE.INTER>
-12.8927

>  <SCORE.INTER.CONST>
1

>  <SCORE.INTER.POLAR>
0

>  <SCORE.INTER.ROT>
7

>  <SCORE.INTER.SOLV>
13.1889

>  <SCORE.INTER.VDW>
-21.2581

>  <SCORE.INTER.norm>
-0.477506

>  <SCORE.INTRA>
-2.64372

>  <SCORE.INTRA.DIHEDRAL>
-4.32044

>  <SCORE.INTRA.DIHEDRAL.0>
8.34559

>  <SCORE.INTRA.POLAR>
0

>  <SCORE.INTRA.POLAR.0>
0

>  <SCORE.INTRA.REPUL>
0

>  <SCORE.INTRA.REPUL.0>
0

>  <SCORE.INTRA.SOLV>
-0.531999

>  <SCORE.INTRA.SOLV.lig_0>
-48.829

>  <SCORE.INTRA.VDW>
-0.217506

>  <SCORE.INTRA.VDW.0>
-1.77092

>  <SCORE.INTRA.norm>
-0.0979157

>  <SCORE.RESTR>
0.0128822

>  <SCORE.RESTR.CAVITY>
0.0128822

>  <SCORE.RESTR.norm>
0.000477119

>  <SCORE.SYSTEM>
0

>  <SCORE.SYSTEM.CONST>
0

>  <SCORE.SYSTEM.DIHEDRAL>
0

>  <SCORE.SYSTEM.SOLV>
0

>  <SCORE.SYSTEM.norm>
0

>  <SCORE.heavy>
27

>  <SCORE.norm>
-0.574944

>  <RMSD>
5.103

$$$$
ligand
 OpenBabel11021811503D
libRbt.so/2013.1/901 2013/11/27
 27 29  0  0  0  0  0  0  0  0999 V2000
   48.5355  -24.1428 -106.3230 N   0  0  0  0  0  0  0  0  0  0  0  0
   49.0900  -24.8127 -105.1412 C   0  0  2  0  0  0  0  0  0  0  0  0
   50.5644  -25.0808 -105.3576 C   0  0  0  0  0  0  0  0  0  0  0  0
   51.3822  -24.1884 -105.1911 O   0  0  0  0  0  0  0  0  0  0  0  0
   48.3785  -26.1449 -104.8685 C   0  0  0  0  0  0  0  0  0  0  0  0
   46.9016  -25.9199 -104.5764 C   0  0  0  0  0  0  0  0  0  0  0  0
   45.9747  -27.4752 -104.2843 S   0  0  2  0  0  0  0  0  0  0  0  0
   44.2899  -26.9126 -103.8785 C   0  0  0  0  0  0  0  0  0  0  0  0
   46.5913  -27.7398 -102.6234 C   0  0  0  0  0  0  0  0  0  0  0  0
   45.7418  -28.6740 -101.8034 C   0  0  1  0  0  0  0  0  0  0  0  0
   45.5173  -29.8628 -102.5801 O   0  0  0  0  0  0  0  0  0  0  0  0
   46.6485  -29.0565 -100.7037 C   0  0  1  0  0  0  0  0  0  0  0  0
   46.3754  -28.2537  -99.5563 O   0  0  0  0  0  0  0  0  0  0  0  0
   46.2544  -30.4767 -100.4394 C   0  0  1  0  0  0  0  0  0  0  0  0
   45.1622  -30.5277  -99.4982 O   0  0  0  0  0  0  0  0  0  0  0  0
   45.7982  -31.0592 -101.8108 C   0  0  2  0  0  0  0  0  0  0  0  0
   50.9499  -26.1947 -105.6667 O   0  0  0  0  0  0  0  0  0  0  0  0
   50.8597  -32.3587 -102.7545 N   0  0  0  0  0  0  0  0  0  0  0  0
   50.3875  -31.4888 -101.8282 C   0  0  0  0  0  0  0  0  0  0  0  0
   49.0651  -31.2780 -101.6612 N   0  0  0  0  0  0  0  0  0  0  0  0
   48.1706  -31.8626 -102.4746 C   0  0  0  0  0  0  0  0  0  0  0  0
   48.6317  -32.7650 -103.5020 C   0  0  0  0  0  0  0  0  0  0  0  0
   50.0346  -33.0018 -103.6075 C   0  0  0  0  0  0  0  0  0  0  0  0
   50.5430  -33.8604 -104.5609 N   0  0  0  0  0  0  0  0  0  0  0  0
   47.5532  -33.1990 -104.1647 N   0  0  0  0  0  0  0  0  0  0  0  0
   46.4931  -32.6482 -103.6525 C   0  0  0  0  0  0  0  0  0  0  0  0
   46.8097  -31.8194 -102.6015 N   0  0  0  0  0  0  0  0  0  0  0  0
  2  1  1  6  0  0  0
  2  3  1  0  0  0  0
  2  5  1  0  0  0  0
  3  4  1  0  0  0  0
  3 17  1  0  0  0  0
  5  6  1  0  0  0  0
  7  6  1  1  0  0  0
  7  8  1  0  0  0  0
  7  9  1  0  0  0  0
 10  9  1  6  0  0  0
 10 11  1  0  0  0  0
 10 12  1  0  0  0  0
 11 16  1  0  0  0  0
 12 13  1  1  0  0  0
 12 14  1  0  0  0  0
 14 15  1  1  0  0  0
 14 16  1  0  0  0  0
 16 27  1  6  0  0  0
 18 19  2  0  0  0  0
 18 23  1  0  0  0  0
 19 20  1  0  0  0  0
 20 21  2  0  0  0  0
 21 22  1  0  0  0  0
 21 27  1  0  0  0  0
 22 23  2  0  0  0  0
 22 25  1  0  0  0  0
 23 24  1  0  0  0  0
 25 26  2  0  0  0  0
 26 27  1  0  0  0  0
M  END
>  <CHROM.1>
80.20821673,-61.96844505,178.45813843,177.08091947,160.42329870,50.34559515
97.35897743,47.75931507,-29.10979099,-103.19706045,-1.38736178,-0.52558592
2.82801682

>  <Name>
ligand

>  <RI>
0

>  <Rbt.Current_Directory>
/home/itssahil/PROJECTS/Mol_Feturizer/New_Systems/rnas/4L81

>  <Rbt.Executable>
rbdock ($Id: //depot/dev/client3/rdock/2013.1/src/exe/rbdock.cxx#4 $)

>  <Rbt.Library>
libRbt.so (2013.1, Build901 2013/11/27)

>  <Rbt.Parameter_File>
/export/apps/rDock/src/rDock_2013.1_src/data/scripts/dock_solv.prm

>  <Rbt.Receptor>
prm/pocket_docking_4.prm

>  <SCORE>
-14.9943

>  <SCORE.INTER>
-13.1685

>  <SCORE.INTER.CONST>
1

>  <SCORE.INTER.POLAR>
0

>  <SCORE.INTER.ROT>
7

>  <SCORE.INTER.SOLV>
10.4626

>  <SCORE.INTER.VDW>
-20.5332

>  <SCORE.INTER.norm>
-0.487724

>  <SCORE.INTRA>
-1.82577

>  <SCORE.INTRA.DIHEDRAL>
-4.15075

>  <SCORE.INTRA.DIHEDRAL.0>
8.34559

>  <SCORE.INTRA.POLAR>
0

>  <SCORE.INTRA.POLAR.0>
0

>  <SCORE.INTRA.REPUL>
0

>  <SCORE.INTRA.REPUL.0>
0

>  <SCORE.INTRA.SOLV>
-0.599975

>  <SCORE.INTRA.SOLV.lig_0>
-48.829

>  <SCORE.INTRA.VDW>
0.549591

>  <SCORE.INTRA.VDW.0>
-1.77092

>  <SCORE.INTRA.norm>
-0.0676212

>  <SCORE.RESTR>
0

>  <SCORE.RESTR.CAVITY>
0

>  <SCORE.RESTR.norm>
0

>  <SCORE.SYSTEM>
0

>  <SCORE.SYSTEM.CONST>
0

>  <SCORE.SYSTEM.DIHEDRAL>
0

>  <SCORE.SYSTEM.SOLV>
0

>  <SCORE.SYSTEM.norm>
0

>  <SCORE.heavy>
27

>  <SCORE.norm>
-0.555345

>  <RMSD>
5.109

$$$$
ligand
 OpenBabel11021811503D
libRbt.so/2013.1/901 2013/11/27
 27 29  0  0  0  0  0  0  0  0999 V2000
   50.3496  -24.0605 -104.9356 N   0  0  0  0  0  0  0  0  0  0  0  0
   49.0441  -24.1218 -104.2688 C   0  0  2  0  0  0  0  0  0  0  0  0
   49.1814  -23.6312 -102.8430 C   0  0  0  0  0  0  0  0  0  0  0  0
   48.2031  -23.5834 -102.1126 O   0  0  0  0  0  0  0  0  0  0  0  0
   48.4931  -25.5541 -104.2495 C   0  0  0  0  0  0  0  0  0  0  0  0
   46.9970  -25.5549 -103.9696 C   0  0  0  0  0  0  0  0  0  0  0  0
   46.2460  -27.2264 -104.0420 S   0  0  2  0  0  0  0  0  0  0  0  0
   44.4764  -26.9268 -103.7289 C   0  0  0  0  0  0  0  0  0  0  0  0
   46.7452  -27.7168 -102.3930 C   0  0  0  0  0  0  0  0  0  0  0  0
   45.7872  -28.6691 -101.7281 C   0  0  1  0  0  0  0  0  0  0  0  0
   45.5768  -29.7774 -102.6193 O   0  0  0  0  0  0  0  0  0  0  0  0
   46.5780  -29.1865 -100.5947 C   0  0  1  0  0  0  0  0  0  0  0  0
   46.2440  -28.4667  -99.4091 O   0  0  0  0  0  0  0  0  0  0  0  0
   46.0992  -30.6011 -100.4859 C   0  0  1  0  0  0  0  0  0  0  0  0
   44.9291  -30.6716  -99.6449 O   0  0  0  0  0  0  0  0  0  0  0  0
   45.7364  -31.0454 -101.9347 C   0  0  2  0  0  0  0  0  0  0  0  0
   50.2721  -23.3121 -102.4029 O   0  0  0  0  0  0  0  0  0  0  0  0
   50.8193  -32.4010 -102.6597 N   0  0  0  0  0  0  0  0  0  0  0  0
   50.3118  -31.5626 -101.7229 C   0  0  0  0  0  0  0  0  0  0  0  0
   48.9861  -31.3337 -101.6186 N   0  0  0  0  0  0  0  0  0  0  0  0
   48.1276  -31.8654 -102.5040 C   0  0  0  0  0  0  0  0  0  0  0  0
   48.6290  -32.7315 -103.5436 C   0  0  0  0  0  0  0  0  0  0  0  0
   50.0314  -32.9908 -103.5835 C   0  0  0  0  0  0  0  0  0  0  0  0
   50.5767  -33.8173 -104.5448 N   0  0  0  0  0  0  0  0  0  0  0  0
   47.5813  -33.1157 -104.2821 N   0  0  0  0  0  0  0  0  0  0  0  0
   46.5042  -32.5670 -103.8043 C   0  0  0  0  0  0  0  0  0  0  0  0
   46.7767  -31.7904 -102.7023 N   0  0  0  0  0  0  0  0  0  0  0  0
  2  1  1  1  0  0  0
  2  3  1  0  0  0  0
  2  5  1  0  0  0  0
  3  4  1  0  0  0  0
  3 17  1  0  0  0  0
  5  6  1  0  0  0  0
  7  6  1  1  0  0  0
  7  8  1  0  0  0  0
  7  9  1  0  0  0  0
 10  9  1  6  0  0  0
 10 11  1  0  0  0  0
 10 12  1  0  0  0  0
 11 16  1  0  0  0  0
 12 13  1  1  0  0  0
 12 14  1  0  0  0  0
 14 15  1  1  0  0  0
 14 16  1  0  0  0  0
 16 27  1  6  0  0  0
 18 19  2  0  0  0  0
 18 23  1  0  0  0  0
 19 20  1  0  0  0  0
 20 21  2  0  0  0  0
 21 22  1  0  0  0  0
 21 27  1  0  0  0  0
 22 23  2  0  0  0  0
 22 25  1  0  0  0  0
 23 24  1  0  0  0  0
 25 26  2  0  0  0  0
 26 27  1  0  0  0  0
M  END
>  <CHROM.1>
179.03102291,-162.18167656,176.15047945,-178.22265508,148.86699140,53.03454034
94.01081795,47.63746494,-28.85661649,-102.70921343,-1.52888339,-0.47058457
3.07587386

>  <Name>
ligand

>  <RI>
0

>  <Rbt.Current_Directory>
/home/itssahil/PROJECTS/Mol_Feturizer/New_Systems/rnas/4L81

>  <Rbt.Executable>
rbdock ($Id: //depot/dev/client3/rdock/2013.1/src/exe/rbdock.cxx#4 $)

>  <Rbt.Library>
libRbt.so (2013.1, Build901 2013/11/27)

>  <Rbt.Parameter_File>
/export/apps/rDock/src/rDock_2013.1_src/data/scripts/dock_solv.prm

>  <Rbt.Receptor>
prm/pocket_docking_5.prm

>  <SCORE>
-15.2273

>  <SCORE.INTER>
-14.16

>  <SCORE.INTER.CONST>
1

>  <SCORE.INTER.POLAR>
0

>  <SCORE.INTER.ROT>
7

>  <SCORE.INTER.SOLV>
12.4339

>  <SCORE.INTER.VDW>
-21.8513

>  <SCORE.INTER.norm>
-0.524443

>  <SCORE.INTRA>
-1.06738

>  <SCORE.INTRA.DIHEDRAL>
-1.8429

>  <SCORE.INTRA.DIHEDRAL.0>
8.34559

>  <SCORE.INTRA.POLAR>
0

>  <SCORE.INTRA.POLAR.0>
0

>  <SCORE.INTRA.REPUL>
0

>  <SCORE.INTRA.REPUL.0>
0

>  <SCORE.INTRA.SOLV>
-1.21392

>  <SCORE.INTRA.SOLV.lig_0>
-48.829

>  <SCORE.INTRA.VDW>
0.461026

>  <SCORE.INTRA.VDW.0>
-1.77092

>  <SCORE.INTRA.norm>
-0.0395327

>  <SCORE.RESTR>
0

>  <SCORE.RESTR.CAVITY>
0

>  <SCORE.RESTR.norm>
0

>  <SCORE.SYSTEM>
0

>  <SCORE.SYSTEM.CONST>
0

>  <SCORE.SYSTEM.DIHEDRAL>
0

>  <SCORE.SYSTEM.SOLV>
0

>  <SCORE.SYSTEM.norm>
0

>  <SCORE.heavy>
27

>  <SCORE.norm>
-0.563976

>  <RMSD>
5.110

$$$$
ligand
 OpenBabel11021811503D
libRbt.so/2013.1/901 2013/11/27
 27 29  0  0  0  0  0  0  0  0999 V2000
   49.5530  -24.9414 -103.0914 N   0  0  0  0  0  0  0  0  0  0  0  0
   48.7006  -26.0839 -103.4387 C   0  0  2  0  0  0  0  0  0  0  0  0
   48.8863  -27.1828 -102.4137 C   0  0  0  0  0  0  0  0  0  0  0  0
   49.9821  -27.7008 -102.2598 O   0  0  0  0  0  0  0  0  0  0  0  0
   49.0465  -26.6377 -104.8276 C   0  0  0  0  0  0  0  0  0  0  0  0
   47.8521  -27.3593 -105.4356 C   0  0  0  0  0  0  0  0  0  0  0  0
   47.3701  -28.8693 -104.5131 S   0  0  2  0  0  0  0  0  0  0  0  0
   47.3254  -30.1683 -105.7899 C   0  0  0  0  0  0  0  0  0  0  0  0
   45.6223  -28.4834 -104.4420 C   0  0  0  0  0  0  0  0  0  0  0  0
   44.8442  -29.3682 -103.5047 C   0  0  1  0  0  0  0  0  0  0  0  0
   45.1296  -30.7346 -103.8489 O   0  0  0  0  0  0  0  0  0  0  0  0
   45.4969  -29.1180 -102.2051 C   0  0  1  0  0  0  0  0  0  0  0  0
   44.7450  -28.1547 -101.4689 O   0  0  0  0  0  0  0  0  0  0  0  0
   45.4086  -30.4549 -101.5366 C   0  0  1  0  0  0  0  0  0  0  0  0
   44.1555  -30.5826 -100.8332 O   0  0  0  0  0  0  0  0  0  0  0  0
   45.4843  -31.5129 -102.6782 C   0  0  2  0  0  0  0  0  0  0  0  0
   47.9544  -27.5358 -101.7122 O   0  0  0  0  0  0  0  0  0  0  0  0
   50.6898  -31.8326 -101.6789 N   0  0  0  0  0  0  0  0  0  0  0  0
   49.7817  -31.0190 -101.0862 C   0  0  0  0  0  0  0  0  0  0  0  0
   48.4714  -31.0663 -101.4050 N   0  0  0  0  0  0  0  0  0  0  0  0
   48.0351  -31.8664 -102.3915 C   0  0  0  0  0  0  0  0  0  0  0  0
   48.9744  -32.7201 -103.0781 C   0  0  0  0  0  0  0  0  0  0  0  0
   50.3412  -32.6785 -102.6714 C   0  0  0  0  0  0  0  0  0  0  0  0
   51.2904  -33.4754 -103.2785 N   0  0  0  0  0  0  0  0  0  0  0  0
   48.2905  -33.4004 -104.0055 N   0  0  0  0  0  0  0  0  0  0  0  0
   47.0421  -33.0416 -103.9572 C   0  0  0  0  0  0  0  0  0  0  0  0
   46.8218  -32.1033 -102.9760 N   0  0  0  0  0  0  0  0  0  0  0  0
  2  1  1  1  0  0  0
  2  3  1  0  0  0  0
  2  5  1  0  0  0  0
  3  4  1  0  0  0  0
  3 17  1  0  0  0  0
  5  6  1  0  0  0  0
  7  6  1  6  0  0  0
  7  8  1  0  0  0  0
  7  9  1  0  0  0  0
 10  9  1  6  0  0  0
 10 11  1  0  0  0  0
 10 12  1  0  0  0  0
 11 16  1  0  0  0  0
 12 13  1  1  0  0  0
 12 14  1  0  0  0  0
 14 15  1  6  0  0  0
 14 16  1  0  0  0  0
 16 27  1  6  0  0  0
 18 19  2  0  0  0  0
 18 23  1  0  0  0  0
 19 20  1  0  0  0  0
 20 21  2  0  0  0  0
 21 22  1  0  0  0  0
 21 27  1  0  0  0  0
 22 23  2  0  0  0  0
 22 25  1  0  0  0  0
 23 24  1  0  0  0  0
 25 26  2  0  0  0  0
 26 27  1  0  0  0  0
M  END
>  <CHROM.1>
-61.51732287,-155.18684713,-65.34615286,-127.43465189,-168.59276099,-52.41545246
113.60189914,47.61527940,-29.81755626,-103.05219433,-1.69562780,-0.05451314
3.02125885

>  <Name>
ligand

>  <RI>
0

>  <Rbt.Current_Directory>
/home/itssahil/PROJECTS/Mol_Feturizer/New_Systems/rnas/4L81

>  <Rbt.Executable>
rbdock ($Id: //depot/dev/client3/rdock/2013.1/src/exe/rbdock.cxx#4 $)

>  <Rbt.Library>
libRbt.so (2013.1, Build901 2013/11/27)

>  <Rbt.Parameter_File>
/export/apps/rDock/src/rDock_2013.1_src/data/scripts/dock_solv.prm

>  <Rbt.Receptor>
prm/pocket_docking_4.prm

>  <SCORE>
-10.3972

>  <SCORE.INTER>
-8.04724

>  <SCORE.INTER.CONST>
1

>  <SCORE.INTER.POLAR>
0

>  <SCORE.INTER.ROT>
7

>  <SCORE.INTER.SOLV>
12.4338

>  <SCORE.INTER.VDW>
-17.7761

>  <SCORE.INTER.norm>
-0.298046

>  <SCORE.INTRA>
-2.34995

>  <SCORE.INTRA.DIHEDRAL>
2.55945

>  <SCORE.INTRA.DIHEDRAL.0>
8.34559

>  <SCORE.INTRA.POLAR>
0

>  <SCORE.INTRA.POLAR.0>
0

>  <SCORE.INTRA.REPUL>
0

>  <SCORE.INTRA.REPUL.0>
0

>  <SCORE.INTRA.SOLV>
-0.706723

>  <SCORE.INTRA.SOLV.lig_0>
-48.829

>  <SCORE.INTRA.VDW>
-3.27632

>  <SCORE.INTRA.VDW.0>
-1.77092

>  <SCORE.INTRA.norm>
-0.0870352

>  <SCORE.RESTR>
0

>  <SCORE.RESTR.CAVITY>
0

>  <SCORE.RESTR.norm>
0

>  <SCORE.SYSTEM>
0

>  <SCORE.SYSTEM.CONST>
0

>  <SCORE.SYSTEM.DIHEDRAL>
0

>  <SCORE.SYSTEM.SOLV>
0

>  <SCORE.SYSTEM.norm>
0

>  <SCORE.heavy>
27

>  <SCORE.norm>
-0.385081

>  <RMSD>
5.113

$$$$
ligand
 OpenBabel11021811503D
libRbt.so/2013.1/901 2013/11/27
 27 29  0  0  0  0  0  0  0  0999 V2000
   45.2109  -30.8799 -103.5718 N   0  0  0  0  0  0  0  0  0  0  0  0
   45.1448  -29.4820 -104.0125 C   0  0  2  0  0  0  0  0  0  0  0  0
   45.3441  -29.4150 -105.5120 C   0  0  0  0  0  0  0  0  0  0  0  0
   46.2703  -30.0151 -106.0362 O   0  0  0  0  0  0  0  0  0  0  0  0
   46.2232  -28.6292 -103.3303 C   0  0  0  0  0  0  0  0  0  0  0  0
   45.9853  -28.5555 -101.8287 C   0  0  0  0  0  0  0  0  0  0  0  0
   46.5790  -30.0377 -100.9264 S   0  0  2  0  0  0  0  0  0  0  0  0
   46.1230  -29.7086  -99.1934 C   0  0  0  0  0  0  0  0  0  0  0  0
   48.2966  -29.5329 -100.8668 C   0  0  0  0  0  0  0  0  0  0  0  0
   49.1818  -30.2816 -101.8274 C   0  0  1  0  0  0  0  0  0  0  0  0
   48.8886  -29.8129 -103.1546 O   0  0  0  0  0  0  0  0  0  0  0  0
   50.5267  -29.7755 -101.4915 C   0  0  1  0  0  0  0  0  0  0  0  0
   51.1789  -30.6933 -100.6153 O   0  0  0  0  0  0  0  0  0  0  0  0
   51.2105  -29.7666 -102.8235 C   0  0  1  0  0  0  0  0  0  0  0  0
   51.8085  -31.0523 -103.0893 O   0  0  0  0  0  0  0  0  0  0  0  0
   50.0994  -29.4726 -103.8758 C   0  0  2  0  0  0  0  0  0  0  0  0
   44.5648  -28.7907 -106.2105 O   0  0  0  0  0  0  0  0  0  0  0  0
   48.2785  -24.5726 -102.9418 N   0  0  0  0  0  0  0  0  0  0  0  0
   48.1418  -25.6698 -102.1574 C   0  0  0  0  0  0  0  0  0  0  0  0
   48.6925  -26.8553 -102.4927 N   0  0  0  0  0  0  0  0  0  0  0  0
   49.3242  -27.0089 -103.6678 C   0  0  0  0  0  0  0  0  0  0  0  0
   49.4573  -25.8772 -104.5531 C   0  0  0  0  0  0  0  0  0  0  0  0
   48.9083  -24.6287 -104.1344 C   0  0  0  0  0  0  0  0  0  0  0  0
   49.0084  -23.5038 -104.9276 N   0  0  0  0  0  0  0  0  0  0  0  0
   50.1131  -26.2974 -105.6414 N   0  0  0  0  0  0  0  0  0  0  0  0
   50.3813  -27.5624 -105.5103 C   0  0  0  0  0  0  0  0  0  0  0  0
   49.9261  -28.0556 -104.3098 N   0  0  0  0  0  0  0  0  0  0  0  0
  2  1  1  1  0  0  0
  2  3  1  0  0  0  0
  2  5  1  0  0  0  0
  3  4  1  0  0  0  0
  3 17  1  0  0  0  0
  5  6  1  0  0  0  0
  7  6  1  6  0  0  0
  7  8  1  0  0  0  0
  7  9  1  0  0  0  0
 10  9  1  1  0  0  0
 10 11  1  0  0  0  0
 10 12  1  0  0  0  0
 11 16  1  0  0  0  0
 12 13  1  1  0  0  0
 12 14  1  0  0  0  0
 14 15  1  6  0  0  0
 14 16  1  0  0  0  0
 16 27  1  1  0  0  0
 18 19  2  0  0  0  0
 18 23  1  0  0  0  0
 19 20  1  0  0  0  0
 20 21  2  0  0  0  0
 21 22  1  0  0  0  0
 21 27  1  0  0  0  0
 22 23  2  0  0  0  0
 22 25  1  0  0  0  0
 23 24  1  0  0  0  0
 25 26  2  0  0  0  0
 26 27  1  0  0  0  0
M  END
>  <CHROM.1>
-48.39149038,-64.65060901,80.36803543,-178.15372408,-105.17601573,72.78425670
36.31715250,48.22739965,-28.52604803,-103.15517445,1.94060133,0.25426078
2.48973758

>  <Name>
ligand

>  <RI>
0

>  <Rbt.Current_Directory>
/home/itssahil/PROJECTS/Mol_Feturizer/New_Systems/rnas/4L81

>  <Rbt.Executable>
rbdock ($Id: //depot/dev/client3/rdock/2013.1/src/exe/rbdock.cxx#4 $)

>  <Rbt.Library>
libRbt.so (2013.1, Build901 2013/11/27)

>  <Rbt.Parameter_File>
/export/apps/rDock/src/rDock_2013.1_src/data/scripts/dock_solv.prm

>  <Rbt.Receptor>
prm/pocket_docking_3.prm

>  <SCORE>
-13.4433

>  <SCORE.INTER>
-11.1484

>  <SCORE.INTER.CONST>
1

>  <SCORE.INTER.POLAR>
0

>  <SCORE.INTER.ROT>
7

>  <SCORE.INTER.SOLV>
7.80674

>  <SCORE.INTER.VDW>
-18.3012

>  <SCORE.INTER.norm>
-0.412902

>  <SCORE.INTRA>
-2.29491

>  <SCORE.INTRA.DIHEDRAL>
0.499516

>  <SCORE.INTRA.DIHEDRAL.0>
8.34559

>  <SCORE.INTRA.POLAR>
0

>  <SCORE.INTRA.POLAR.0>
0

>  <SCORE.INTRA.REPUL>
0

>  <SCORE.INTRA.REPUL.0>
0

>  <SCORE.INTRA.SOLV>
1.53605

>  <SCORE.INTRA.SOLV.lig_0>
-48.829

>  <SCORE.INTRA.VDW>
-3.3127

>  <SCORE.INTRA.VDW.0>
-1.77092

>  <SCORE.INTRA.norm>
-0.0849967

>  <SCORE.RESTR>
0

>  <SCORE.RESTR.CAVITY>
0

>  <SCORE.RESTR.norm>
0

>  <SCORE.SYSTEM>
0

>  <SCORE.SYSTEM.CONST>
0

>  <SCORE.SYSTEM.DIHEDRAL>
0

>  <SCORE.SYSTEM.SOLV>
0

>  <SCORE.SYSTEM.norm>
0

>  <SCORE.heavy>
27

>  <SCORE.norm>
-0.497899

>  <RMSD>
5.115

$$$$
ligand
 OpenBabel11021811503D
libRbt.so/2013.1/901 2013/11/27
 27 29  0  0  0  0  0  0  0  0999 V2000
   47.8000  -26.1029 -109.7143 N   0  0  0  0  0  0  0  0  0  0  0  0
   47.7799  -26.5131 -108.3058 C   0  0  2  0  0  0  0  0  0  0  0  0
   48.7217  -25.6341 -107.5101 C   0  0  0  0  0  0  0  0  0  0  0  0
   49.5754  -24.9729 -108.0817 O   0  0  0  0  0  0  0  0  0  0  0  0
   48.2117  -27.9769 -108.1437 C   0  0  0  0  0  0  0  0  0  0  0  0
   48.1131  -28.4123 -106.6885 C   0  0  0  0  0  0  0  0  0  0  0  0
   48.2723  -30.2252 -106.4612 S   0  0  2  0  0  0  0  0  0  0  0  0
   46.6357  -30.8723 -106.9327 C   0  0  0  0  0  0  0  0  0  0  0  0
   48.0638  -30.1999 -104.6823 C   0  0  0  0  0  0  0  0  0  0  0  0
   49.3536  -30.3435 -103.9190 C   0  0  1  0  0  0  0  0  0  0  0  0
   50.1561  -29.1809 -104.1860 O   0  0  0  0  0  0  0  0  0  0  0  0
   48.9134  -30.2357 -102.5146 C   0  0  1  0  0  0  0  0  0  0  0  0
   48.7661  -31.5407 -101.9572 O   0  0  0  0  0  0  0  0  0  0  0  0
   50.0656  -29.5308 -101.8682 C   0  0  1  0  0  0  0  0  0  0  0  0
   51.0595  -30.4838 -101.4379 O   0  0  0  0  0  0  0  0  0  0  0  0
   50.6668  -28.5970 -102.9612 C   0  0  2  0  0  0  0  0  0  0  0  0
   48.6148  -25.5535 -106.2989 O   0  0  0  0  0  0  0  0  0  0  0  0
   46.7402  -25.0308 -103.2097 N   0  0  0  0  0  0  0  0  0  0  0  0
   46.6380  -26.3807 -103.2822 C   0  0  0  0  0  0  0  0  0  0  0  0
   47.7173  -27.1817 -103.1625 N   0  0  0  0  0  0  0  0  0  0  0  0
   48.9496  -26.6588 -103.0551 C   0  0  0  0  0  0  0  0  0  0  0  0
   49.1092  -25.2251 -103.0153 C   0  0  0  0  0  0  0  0  0  0  0  0
   47.9361  -24.4166 -103.0893 C   0  0  0  0  0  0  0  0  0  0  0  0
   48.0155  -23.0394 -103.0470 N   0  0  0  0  0  0  0  0  0  0  0  0
   50.4192  -24.9726 -102.9117 N   0  0  0  0  0  0  0  0  0  0  0  0
   51.0662  -26.0998 -102.8937 C   0  0  0  0  0  0  0  0  0  0  0  0
   50.2129  -27.1757 -102.9716 N   0  0  0  0  0  0  0  0  0  0  0  0
  2  1  1  6  0  0  0
  2  3  1  0  0  0  0
  2  5  1  0  0  0  0
  3  4  1  0  0  0  0
  3 17  1  0  0  0  0
  5  6  1  0  0  0  0
  7  6  1  6  0  0  0
  7  8  1  0  0  0  0
  7  9  1  0  0  0  0
 10  9  1  6  0  0  0
 10 11  1  0  0  0  0
 10 12  1  0  0  0  0
 11 16  1  0  0  0  0
 12 13  1  1  0  0  0
 12 14  1  0  0  0  0
 14 15  1  6  0  0  0
 14 16  1  0  0  0  0
 16 27  1  1  0  0  0
 18 19  2  0  0  0  0
 18 23  1  0  0  0  0
 19 20  1  0  0  0  0
 20 21  2  0  0  0  0
 21 22  1  0  0  0  0
 21 27  1  0  0  0  0
 22 23  2  0  0  0  0
 22 25  1  0  0  0  0
 23 24  1  0  0  0  0
 25 26  2  0  0  0  0
 26 27  1  0  0  0  0
M  END
>  <CHROM.1>
-17.32320576,-176.87549113,167.99881023,-78.15706711,-102.14215249,65.48549422
57.35852041,48.78504904,-27.69333325,-104.65208051,2.52900045,-1.30105236
0.11379266

>  <Name>
ligand

>  <RI>
0

>  <Rbt.Current_Directory>
/home/itssahil/PROJECTS/Mol_Feturizer/New_Systems/rnas/4L81

>  <Rbt.Executable>
rbdock ($Id: //depot/dev/client3/rdock/2013.1/src/exe/rbdock.cxx#4 $)

>  <Rbt.Library>
libRbt.so (2013.1, Build901 2013/11/27)

>  <Rbt.Parameter_File>
/export/apps/rDock/src/rDock_2013.1_src/data/scripts/dock_solv.prm

>  <Rbt.Receptor>
prm/pocket_docking_7.prm

>  <SCORE>
-11.126

>  <SCORE.INTER>
-7.37514

>  <SCORE.INTER.CONST>
1

>  <SCORE.INTER.POLAR>
0

>  <SCORE.INTER.ROT>
7

>  <SCORE.INTER.SOLV>
12.2171

>  <SCORE.INTER.VDW>
-17.2558

>  <SCORE.INTER.norm>
-0.273153

>  <SCORE.INTRA>
-3.75082

>  <SCORE.INTRA.DIHEDRAL>
-1.37379

>  <SCORE.INTRA.DIHEDRAL.0>
8.34559

>  <SCORE.INTRA.POLAR>
0

>  <SCORE.INTRA.POLAR.0>
0

>  <SCORE.INTRA.REPUL>
0

>  <SCORE.INTRA.REPUL.0>
0

>  <SCORE.INTRA.SOLV>
-1.2417

>  <SCORE.INTRA.SOLV.lig_0>
-48.829

>  <SCORE.INTRA.VDW>
-2.44308

>  <SCORE.INTRA.VDW.0>
-1.77092

>  <SCORE.INTRA.norm>
-0.138919

>  <SCORE.RESTR>
0

>  <SCORE.RESTR.CAVITY>
0

>  <SCORE.RESTR.norm>
0

>  <SCORE.SYSTEM>
0

>  <SCORE.SYSTEM.CONST>
0

>  <SCORE.SYSTEM.DIHEDRAL>
0

>  <SCORE.SYSTEM.SOLV>
0

>  <SCORE.SYSTEM.norm>
0

>  <SCORE.heavy>
27

>  <SCORE.norm>
-0.412073

>  <RMSD>
5.121

$$$$
ligand
 OpenBabel11021811503D
libRbt.so/2013.1/901 2013/11/27
 27 29  0  0  0  0  0  0  0  0999 V2000
   49.2943  -25.4053 -104.4869 N   0  0  0  0  0  0  0  0  0  0  0  0
   49.1075  -26.5890 -103.6403 C   0  0  2  0  0  0  0  0  0  0  0  0
   48.8497  -27.7990 -104.5134 C   0  0  0  0  0  0  0  0  0  0  0  0
   48.8148  -27.6832 -105.7292 O   0  0  0  0  0  0  0  0  0  0  0  0
   47.9235  -26.4086 -102.6806 C   0  0  0  0  0  0  0  0  0  0  0  0
   46.6729  -25.9844 -103.4375 C   0  0  0  0  0  0  0  0  0  0  0  0
   45.8910  -27.3547 -104.3726 S   0  0  2  0  0  0  0  0  0  0  0  0
   44.4194  -26.5887 -105.1258 C   0  0  0  0  0  0  0  0  0  0  0  0
   45.1145  -28.1192 -102.9509 C   0  0  0  0  0  0  0  0  0  0  0  0
   44.4031  -29.4075 -103.2688 C   0  0  1  0  0  0  0  0  0  0  0  0
   45.3122  -30.2436 -104.0046 O   0  0  0  0  0  0  0  0  0  0  0  0
   44.2454  -30.0279 -101.9392 C   0  0  1  0  0  0  0  0  0  0  0  0
   42.9377  -29.7581 -101.4366 O   0  0  0  0  0  0  0  0  0  0  0  0
   44.3844  -31.4871 -102.2452 C   0  0  1  0  0  0  0  0  0  0  0  0
   43.1061  -32.0474 -102.6099 O   0  0  0  0  0  0  0  0  0  0  0  0
   45.3669  -31.5824 -103.4509 C   0  0  2  0  0  0  0  0  0  0  0  0
   48.7083  -28.9013 -104.0135 O   0  0  0  0  0  0  0  0  0  0  0  0
   49.7549  -30.3846 -100.7106 N   0  0  0  0  0  0  0  0  0  0  0  0
   48.5488  -29.7682 -100.6525 C   0  0  0  0  0  0  0  0  0  0  0  0
   47.4950  -30.2007 -101.3759 N   0  0  0  0  0  0  0  0  0  0  0  0
   47.6330  -31.2103 -102.2507 C   0  0  0  0  0  0  0  0  0  0  0  0
   48.9108  -31.8692 -102.3753 C   0  0  0  0  0  0  0  0  0  0  0  0
   49.9835  -31.4158 -101.5512 C   0  0  0  0  0  0  0  0  0  0  0  0
   51.2289  -32.0073 -101.6122 N   0  0  0  0  0  0  0  0  0  0  0  0
   48.7790  -32.8218 -103.3059 N   0  0  0  0  0  0  0  0  0  0  0  0
   47.5618  -32.8015 -103.7612 C   0  0  0  0  0  0  0  0  0  0  0  0
   46.8051  -31.8335 -103.1430 N   0  0  0  0  0  0  0  0  0  0  0  0
  2  1  1  6  0  0  0
  2  3  1  0  0  0  0
  2  5  1  0  0  0  0
  3  4  1  0  0  0  0
  3 17  1  0  0  0  0
  5  6  1  0  0  0  0
  7  6  1  1  0  0  0
  7  8  1  0  0  0  0
  7  9  1  0  0  0  0
 10  9  1  1  0  0  0
 10 11  1  0  0  0  0
 10 12  1  0  0  0  0
 11 16  1  0  0  0  0
 12 13  1  6  0  0  0
 12 14  1  0  0  0  0
 14 15  1  6  0  0  0
 14 16  1  0  0  0  0
 16 27  1  1  0  0  0
 18 19  2  0  0  0  0
 18 23  1  0  0  0  0
 19 20  1  0  0  0  0
 20 21  2  0  0  0  0
 21 22  1  0  0  0  0
 21 27  1  0  0  0  0
 22 23  2  0  0  0  0
 22 25  1  0  0  0  0
 23 24  1  0  0  0  0
 25 26  2  0  0  0  0
 26 27  1  0  0  0  0
M  END
>  <CHROM.1>
-0.51073616,51.93463786,75.25711207,178.39451761,-175.86523035,50.38095891
64.12475308,46.96188533,-29.46908495,-103.08654886,-1.64614128,0.04687838
2.76931023

>  <Name>
ligand

>  <RI>
0

>  <Rbt.Current_Directory>
/home/itssahil/PROJECTS/Mol_Feturizer/New_Systems/rnas/4L81

>  <Rbt.Executable>
rbdock ($Id: //depot/dev/client3/rdock/2013.1/src/exe/rbdock.cxx#4 $)

>  <Rbt.Library>
libRbt.so (2013.1, Build901 2013/11/27)

>  <Rbt.Parameter_File>
/export/apps/rDock/src/rDock_2013.1_src/data/scripts/dock_solv.prm

>  <Rbt.Receptor>
prm/pocket_docking_4.prm

>  <SCORE>
-15.9041

>  <SCORE.INTER>
-11.6782

>  <SCORE.INTER.CONST>
1

>  <SCORE.INTER.POLAR>
0

>  <SCORE.INTER.ROT>
7

>  <SCORE.INTER.SOLV>
12.9786

>  <SCORE.INTER.VDW>
-20.3783

>  <SCORE.INTER.norm>
-0.432526

>  <SCORE.INTRA>
-4.22592

>  <SCORE.INTRA.DIHEDRAL>
-3.11732

>  <SCORE.INTRA.DIHEDRAL.0>
8.34559

>  <SCORE.INTRA.POLAR>
0

>  <SCORE.INTRA.POLAR.0>
0

>  <SCORE.INTRA.REPUL>
0

>  <SCORE.INTRA.REPUL.0>
0

>  <SCORE.INTRA.SOLV>
0.160024

>  <SCORE.INTRA.SOLV.lig_0>
-48.829

>  <SCORE.INTRA.VDW>
-2.74727

>  <SCORE.INTRA.VDW.0>
-1.77092

>  <SCORE.INTRA.norm>
-0.156516

>  <SCORE.RESTR>
0

>  <SCORE.RESTR.CAVITY>
0

>  <SCORE.RESTR.norm>
0

>  <SCORE.SYSTEM>
0

>  <SCORE.SYSTEM.CONST>
0

>  <SCORE.SYSTEM.DIHEDRAL>
0

>  <SCORE.SYSTEM.SOLV>
0

>  <SCORE.SYSTEM.norm>
0

>  <SCORE.heavy>
27

>  <SCORE.norm>
-0.589042

>  <RMSD>
5.124

$$$$
ligand
 OpenBabel11021811503D
libRbt.so/2013.1/901 2013/11/27
 27 29  0  0  0  0  0  0  0  0999 V2000
   49.7282  -25.6673 -104.4855 N   0  0  0  0  0  0  0  0  0  0  0  0
   49.5014  -26.3944 -103.2314 C   0  0  2  0  0  0  0  0  0  0  0  0
   49.2568  -27.8579 -103.5331 C   0  0  0  0  0  0  0  0  0  0  0  0
   49.2588  -28.2559 -104.6882 O   0  0  0  0  0  0  0  0  0  0  0  0
   48.2903  -25.8353 -102.4724 C   0  0  0  0  0  0  0  0  0  0  0  0
   47.1326  -25.5662 -103.4232 C   0  0  0  0  0  0  0  0  0  0  0  0
   46.3690  -27.0954 -104.0878 S   0  0  2  0  0  0  0  0  0  0  0  0
   44.7791  -26.5297 -104.7746 C   0  0  0  0  0  0  0  0  0  0  0  0
   45.7914  -27.7070 -102.5064 C   0  0  0  0  0  0  0  0  0  0  0  0
   44.8916  -28.9094 -102.6137 C   0  0  1  0  0  0  0  0  0  0  0  0
   45.5299  -29.8621 -103.4809 O   0  0  0  0  0  0  0  0  0  0  0  0
   44.9463  -29.4783 -101.2532 C   0  0  1  0  0  0  0  0  0  0  0  0
   43.8096  -29.0461 -100.5071 O   0  0  0  0  0  0  0  0  0  0  0  0
   44.8567  -30.9499 -101.5146 C   0  0  1  0  0  0  0  0  0  0  0  0
   43.4765  -31.3641 -101.5851 O   0  0  0  0  0  0  0  0  0  0  0  0
   45.5503  -31.1859 -102.8898 C   0  0  2  0  0  0  0  0  0  0  0  0
   49.0893  -28.6548 -102.6266 O   0  0  0  0  0  0  0  0  0  0  0  0
   50.3496  -31.0114 -100.6239 N   0  0  0  0  0  0  0  0  0  0  0  0
   49.2275  -30.3563 -100.2371 C   0  0  0  0  0  0  0  0  0  0  0  0
   48.0522  -30.5211 -100.8795 N   0  0  0  0  0  0  0  0  0  0  0  0
   47.9771  -31.2781 -101.9862 C   0  0  0  0  0  0  0  0  0  0  0  0
   49.1573  -31.9615 -102.4579 C   0  0  0  0  0  0  0  0  0  0  0  0
   50.3661  -31.8036 -101.7167 C   0  0  0  0  0  0  0  0  0  0  0  0
   51.5291  -32.4363 -102.1061 N   0  0  0  0  0  0  0  0  0  0  0  0
   48.8143  -32.6323 -103.5639 N   0  0  0  0  0  0  0  0  0  0  0  0
   47.5567  -32.4191 -103.8137 C   0  0  0  0  0  0  0  0  0  0  0  0
   46.9844  -31.5974 -102.8709 N   0  0  0  0  0  0  0  0  0  0  0  0
  2  1  1  6  0  0  0
  2  3  1  0  0  0  0
  2  5  1  0  0  0  0
  3  4  1  0  0  0  0
  3 17  1  0  0  0  0
  5  6  1  0  0  0  0
  7  6  1  1  0  0  0
  7  8  1  0  0  0  0
  7  9  1  0  0  0  0
 10  9  1  1  0  0  0
 10 11  1  0  0  0  0
 10 12  1  0  0  0  0
 11 16  1  0  0  0  0
 12 13  1  1  0  0  0
 12 14  1  0  0  0  0
 14 15  1  6  0  0  0
 14 16  1  0  0  0  0
 16 27  1  1  0  0  0
 18 19  2  0  0  0  0
 18 23  1  0  0  0  0
 19 20  1  0  0  0  0
 20 21  2  0  0  0  0
 21 22  1  0  0  0  0
 21 27  1  0  0  0  0
 22 23  2  0  0  0  0
 22 25  1  0  0  0  0
 23 24  1  0  0  0  0
 25 26  2  0  0  0  0
 26 27  1  0  0  0  0
M  END
>  <CHROM.1>
-0.63283622,43.29780677,69.89122121,164.45818351,171.41326858,48.88691441
81.21601322,47.37588410,-29.33157867,-102.67756055,-2.01041902,-0.08462776
2.79941899

>  <Name>
ligand

>  <RI>
0

>  <Rbt.Current_Directory>
/home/itssahil/PROJECTS/Mol_Feturizer/New_Systems/rnas/4L81

>  <Rbt.Executable>
rbdock ($Id: //depot/dev/client3/rdock/2013.1/src/exe/rbdock.cxx#4 $)

>  <Rbt.Library>
libRbt.so (2013.1, Build901 2013/11/27)

>  <Rbt.Parameter_File>
/export/apps/rDock/src/rDock_2013.1_src/data/scripts/dock_solv.prm

>  <Rbt.Receptor>
prm/pocket_docking_4.prm

>  <SCORE>
-16.175

>  <SCORE.INTER>
-12.6318

>  <SCORE.INTER.CONST>
1

>  <SCORE.INTER.POLAR>
0

>  <SCORE.INTER.ROT>
7

>  <SCORE.INTER.SOLV>
12.7714

>  <SCORE.INTER.VDW>
-20.945

>  <SCORE.INTER.norm>
-0.467843

>  <SCORE.INTRA>
-3.54329

>  <SCORE.INTRA.DIHEDRAL>
-3.16557

>  <SCORE.INTRA.DIHEDRAL.0>
8.34559

>  <SCORE.INTRA.POLAR>
0

>  <SCORE.INTRA.POLAR.0>
0

>  <SCORE.INTRA.REPUL>
0

>  <SCORE.INTRA.REPUL.0>
0

>  <SCORE.INTRA.SOLV>
0.40426

>  <SCORE.INTRA.SOLV.lig_0>
-48.829

>  <SCORE.INTRA.VDW>
-2.16264

>  <SCORE.INTRA.VDW.0>
-1.77092

>  <SCORE.INTRA.norm>
-0.131233

>  <SCORE.RESTR>
0

>  <SCORE.RESTR.CAVITY>
0

>  <SCORE.RESTR.norm>
0

>  <SCORE.SYSTEM>
0

>  <SCORE.SYSTEM.CONST>
0

>  <SCORE.SYSTEM.DIHEDRAL>
0

>  <SCORE.SYSTEM.SOLV>
0

>  <SCORE.SYSTEM.norm>
0

>  <SCORE.heavy>
27

>  <SCORE.norm>
-0.599076

>  <RMSD>
5.124

$$$$
ligand
 OpenBabel11021811503D
libRbt.so/2013.1/901 2013/11/27
 27 29  0  0  0  0  0  0  0  0999 V2000
   48.0860  -24.1748 -107.2939 N   0  0  0  0  0  0  0  0  0  0  0  0
   48.0852  -25.1968 -106.2413 C   0  0  2  0  0  0  0  0  0  0  0  0
   49.2359  -26.1549 -106.4664 C   0  0  0  0  0  0  0  0  0  0  0  0
   50.0815  -26.3142 -105.5991 O   0  0  0  0  0  0  0  0  0  0  0  0
   46.7722  -25.9915 -106.2348 C   0  0  0  0  0  0  0  0  0  0  0  0
   46.7002  -26.9079 -105.0216 C   0  0  0  0  0  0  0  0  0  0  0  0
   46.3662  -26.0138 -103.4556 S   0  0  2  0  0  0  0  0  0  0  0  0
   47.9976  -25.3716 -102.9601 C   0  0  0  0  0  0  0  0  0  0  0  0
   46.3137  -27.4770 -102.4236 C   0  0  0  0  0  0  0  0  0  0  0  0
   44.9837  -28.1823 -102.4397 C   0  0  1  0  0  0  0  0  0  0  0  0
   44.7659  -28.6832 -103.7696 O   0  0  0  0  0  0  0  0  0  0  0  0
   45.2298  -29.3588 -101.5835 C   0  0  1  0  0  0  0  0  0  0  0  0
   44.7573  -29.0976 -100.2629 O   0  0  0  0  0  0  0  0  0  0  0  0
   44.3838  -30.4115 -102.2302 C   0  0  1  0  0  0  0  0  0  0  0  0
   43.0400  -30.3666 -101.7072 O   0  0  0  0  0  0  0  0  0  0  0  0
   44.3702  -30.0779 -103.7522 C   0  0  2  0  0  0  0  0  0  0  0  0
   49.3098  -26.7984 -107.4986 O   0  0  0  0  0  0  0  0  0  0  0  0
   48.4291  -33.4633 -104.2648 N   0  0  0  0  0  0  0  0  0  0  0  0
   47.8218  -33.0667 -103.1195 C   0  0  0  0  0  0  0  0  0  0  0  0
   46.7653  -32.2272 -103.1301 N   0  0  0  0  0  0  0  0  0  0  0  0
   46.3341  -31.6837 -104.2800 C   0  0  0  0  0  0  0  0  0  0  0  0
   46.9782  -32.0461 -105.5195 C   0  0  0  0  0  0  0  0  0  0  0  0
   48.0557  -32.9797 -105.4685 C   0  0  0  0  0  0  0  0  0  0  0  0
   48.7096  -33.3774 -106.6169 N   0  0  0  0  0  0  0  0  0  0  0  0
   46.3675  -31.3688 -106.4988 N   0  0  0  0  0  0  0  0  0  0  0  0
   45.4309  -30.6310 -105.9813 C   0  0  0  0  0  0  0  0  0  0  0  0
   45.3570  -30.7883 -104.6170 N   0  0  0  0  0  0  0  0  0  0  0  0
  2  1  1  6  0  0  0
  2  3  1  0  0  0  0
  2  5  1  0  0  0  0
  3  4  1  0  0  0  0
  3 17  1  0  0  0  0
  5  6  1  0  0  0  0
  7  6  1  6  0  0  0
  7  8  1  0  0  0  0
  7  9  1  0  0  0  0
 10  9  1  6  0  0  0
 10 11  1  0  0  0  0
 10 12  1  0  0  0  0
 11 16  1  0  0  0  0
 12 13  1  1  0  0  0
 12 14  1  0  0  0  0
 14 15  1  1  0  0  0
 14 16  1  0  0  0  0
 16 27  1  6  0  0  0
 18 19  2  0  0  0  0
 18 23  1  0  0  0  0
 19 20  1  0  0  0  0
 20 21  2  0  0  0  0
 21 22  1  0  0  0  0
 21 27  1  0  0  0  0
 22 23  2  0  0  0  0
 22 25  1  0  0  0  0
 23 24  1  0  0  0  0
 25 26  2  0  0  0  0
 26 27  1  0  0  0  0
M  END
>  <CHROM.1>
122.01263668,-171.89926457,74.19775655,-81.40575994,-82.65109450,65.05810183
110.96681769,46.67153704,-28.96015411,-104.31524799,-1.12042365,-0.85932505
-3.09179332

>  <Name>
ligand

>  <RI>
0

>  <Rbt.Current_Directory>
/home/itssahil/PROJECTS/Mol_Feturizer/New_Systems/rnas/4L81

>  <Rbt.Executable>
rbdock ($Id: //depot/dev/client3/rdock/2013.1/src/exe/rbdock.cxx#4 $)

>  <Rbt.Library>
libRbt.so (2013.1, Build901 2013/11/27)

>  <Rbt.Parameter_File>
/export/apps/rDock/src/rDock_2013.1_src/data/scripts/dock_solv.prm

>  <Rbt.Receptor>
prm/pocket_docking_6.prm

>  <SCORE>
-13.5967

>  <SCORE.INTER>
-10.3061

>  <SCORE.INTER.CONST>
1

>  <SCORE.INTER.POLAR>
0

>  <SCORE.INTER.ROT>
7

>  <SCORE.INTER.SOLV>
8.87586

>  <SCORE.INTER.VDW>
-18.096

>  <SCORE.INTER.norm>
-0.381707

>  <SCORE.INTRA>
-3.2906

>  <SCORE.INTRA.DIHEDRAL>
-2.94253

>  <SCORE.INTRA.DIHEDRAL.0>
8.34559

>  <SCORE.INTRA.POLAR>
0

>  <SCORE.INTRA.POLAR.0>
0

>  <SCORE.INTRA.REPUL>
0

>  <SCORE.INTRA.REPUL.0>
0

>  <SCORE.INTRA.SOLV>
-0.927338

>  <SCORE.INTRA.SOLV.lig_0>
-48.829

>  <SCORE.INTRA.VDW>
-1.35567

>  <SCORE.INTRA.VDW.0>
-1.77092

>  <SCORE.INTRA.norm>
-0.121874

>  <SCORE.RESTR>
0

>  <SCORE.RESTR.CAVITY>
0

>  <SCORE.RESTR.norm>
0

>  <SCORE.SYSTEM>
0

>  <SCORE.SYSTEM.CONST>
0

>  <SCORE.SYSTEM.DIHEDRAL>
0

>  <SCORE.SYSTEM.SOLV>
0

>  <SCORE.SYSTEM.norm>
0

>  <SCORE.heavy>
27

>  <SCORE.norm>
-0.503581

>  <RMSD>
5.126

$$$$
ligand
 OpenBabel11021811503D
libRbt.so/2013.1/901 2013/11/27
 27 29  0  0  0  0  0  0  0  0999 V2000
   49.9087  -27.1332 -102.9734 N   0  0  0  0  0  0  0  0  0  0  0  0
   48.6268  -27.4665 -103.6046 C   0  0  2  0  0  0  0  0  0  0  0  0
   48.7308  -28.8199 -104.2754 C   0  0  0  0  0  0  0  0  0  0  0  0
   49.8256  -29.2855 -104.5535 O   0  0  0  0  0  0  0  0  0  0  0  0
   48.2330  -26.4205 -104.6564 C   0  0  0  0  0  0  0  0  0  0  0  0
   46.7631  -26.0478 -104.5252 C   0  0  0  0  0  0  0  0  0  0  0  0
   45.6279  -27.4577 -104.8197 S   0  0  2  0  0  0  0  0  0  0  0  0
   43.9892  -26.6768 -104.9764 C   0  0  0  0  0  0  0  0  0  0  0  0
   45.5333  -27.9703 -103.1060 C   0  0  0  0  0  0  0  0  0  0  0  0
   44.5686  -29.1007 -102.8640 C   0  0  1  0  0  0  0  0  0  0  0  0
   44.9474  -30.1943 -103.7169 O   0  0  0  0  0  0  0  0  0  0  0  0
   44.8915  -29.5134 -101.4845 C   0  0  1  0  0  0  0  0  0  0  0  0
   43.9726  -28.9087 -100.5760 O   0  0  0  0  0  0  0  0  0  0  0  0
   44.6672  -30.9932 -101.5293 C   0  0  1  0  0  0  0  0  0  0  0  0
   43.2853  -31.3000 -101.2510 O   0  0  0  0  0  0  0  0  0  0  0  0
   45.0264  -31.4394 -102.9784 C   0  0  2  0  0  0  0  0  0  0  0  0
   47.7273  -29.4693 -104.5129 O   0  0  0  0  0  0  0  0  0  0  0  0
   50.1438  -31.6797 -101.5810 N   0  0  0  0  0  0  0  0  0  0  0  0
   49.1610  -30.9480 -101.0008 C   0  0  0  0  0  0  0  0  0  0  0  0
   47.8830  -31.0091 -101.4299 N   0  0  0  0  0  0  0  0  0  0  0  0
   47.5578  -31.7360 -102.5113 C   0  0  0  0  0  0  0  0  0  0  0  0
   48.5808  -32.4987 -103.1853 C   0  0  0  0  0  0  0  0  0  0  0  0
   49.9082  -32.4490 -102.6648 C   0  0  0  0  0  0  0  0  0  0  0  0
   50.9325  -33.1615 -103.2544 N   0  0  0  0  0  0  0  0  0  0  0  0
   47.9996  -33.1190 -104.2188 N   0  0  0  0  0  0  0  0  0  0  0  0
   46.7386  -32.8048 -104.2448 C   0  0  0  0  0  0  0  0  0  0  0  0
   46.4050  -31.9603 -103.2118 N   0  0  0  0  0  0  0  0  0  0  0  0
  2  1  1  6  0  0  0
  2  3  1  0  0  0  0
  2  5  1  0  0  0  0
  3  4  1  0  0  0  0
  3 17  1  0  0  0  0
  5  6  1  0  0  0  0
  7  6  1  1  0  0  0
  7  8  1  0  0  0  0
  7  9  1  0  0  0  0
 10  9  1  6  0  0  0
 10 11  1  0  0  0  0
 10 12  1  0  0  0  0
 11 16  1  0  0  0  0
 12 13  1  1  0  0  0
 12 14  1  0  0  0  0
 14 15  1  6  0  0  0
 14 16  1  0  0  0  0
 16 27  1  1  0  0  0
 18 19  2  0  0  0  0
 18 23  1  0  0  0  0
 19 20  1  0  0  0  0
 20 21  2  0  0  0  0
 21 22  1  0  0  0  0
 21 27  1  0  0  0  0
 22 23  2  0  0  0  0
 22 25  1  0  0  0  0
 23 24  1  0  0  0  0
 25 26  2  0  0  0  0
 26 27  1  0  0  0  0
M  END
>  <CHROM.1>
-19.86874846,-135.56324573,-62.54633264,-167.66214827,175.48370469,55.99124375
89.41229631,46.97029159,-29.80965528,-103.19167789,-2.30626112,-0.21041228
2.75604035

>  <Name>
ligand

>  <RI>
0

>  <Rbt.Current_Directory>
/home/itssahil/PROJECTS/Mol_Feturizer/New_Systems/rnas/4L81

>  <Rbt.Executable>
rbdock ($Id: //depot/dev/client3/rdock/2013.1/src/exe/rbdock.cxx#4 $)

>  <Rbt.Library>
libRbt.so (2013.1, Build901 2013/11/27)

>  <Rbt.Parameter_File>
/export/apps/rDock/src/rDock_2013.1_src/data/scripts/dock_solv.prm

>  <Rbt.Receptor>
prm/pocket_docking_3.prm

>  <SCORE>
-14.1228

>  <SCORE.INTER>
-10.5204

>  <SCORE.INTER.CONST>
1

>  <SCORE.INTER.POLAR>
0

>  <SCORE.INTER.ROT>
7

>  <SCORE.INTER.SOLV>
13.9979

>  <SCORE.INTER.VDW>
-19.9462

>  <SCORE.INTER.norm>
-0.389645

>  <SCORE.INTRA>
-3.60238

>  <SCORE.INTRA.DIHEDRAL>
1.26147

>  <SCORE.INTRA.DIHEDRAL.0>
8.34559

>  <SCORE.INTRA.POLAR>
0

>  <SCORE.INTRA.POLAR.0>
0

>  <SCORE.INTRA.REPUL>
0

>  <SCORE.INTRA.REPUL.0>
0

>  <SCORE.INTRA.SOLV>
-0.743154

>  <SCORE.INTRA.SOLV.lig_0>
-48.829

>  <SCORE.INTRA.VDW>
-3.86154

>  <SCORE.INTRA.VDW.0>
-1.77092

>  <SCORE.INTRA.norm>
-0.133421

>  <SCORE.RESTR>
0

>  <SCORE.RESTR.CAVITY>
0

>  <SCORE.RESTR.norm>
0

>  <SCORE.SYSTEM>
0

>  <SCORE.SYSTEM.CONST>
0

>  <SCORE.SYSTEM.DIHEDRAL>
0

>  <SCORE.SYSTEM.SOLV>
0

>  <SCORE.SYSTEM.norm>
0

>  <SCORE.heavy>
27

>  <SCORE.norm>
-0.523067

>  <RMSD>
5.135

$$$$
ligand
 OpenBabel11021811503D
libRbt.so/2013.1/901 2013/11/27
 27 29  0  0  0  0  0  0  0  0999 V2000
   48.8805  -27.4358 -109.1718 N   0  0  0  0  0  0  0  0  0  0  0  0
   48.2471  -26.7366 -108.0481 C   0  0  2  0  0  0  0  0  0  0  0  0
   49.3103  -26.2905 -107.0666 C   0  0  0  0  0  0  0  0  0  0  0  0
   49.3896  -25.1164 -106.7382 O   0  0  0  0  0  0  0  0  0  0  0  0
   47.2470  -27.6432 -107.3179 C   0  0  0  0  0  0  0  0  0  0  0  0
   46.3005  -26.8206 -106.4552 C   0  0  0  0  0  0  0  0  0  0  0  0
   45.0678  -27.8387 -105.5567 S   0  0  2  0  0  0  0  0  0  0  0  0
   43.8585  -26.6227 -104.9415 C   0  0  0  0  0  0  0  0  0  0  0  0
   46.0496  -28.0363 -104.0715 C   0  0  0  0  0  0  0  0  0  0  0  0
   45.3769  -28.8599 -103.0056 C   0  0  1  0  0  0  0  0  0  0  0  0
   45.1003  -30.1574 -103.5596 O   0  0  0  0  0  0  0  0  0  0  0  0
   46.4530  -29.0482 -102.0135 C   0  0  1  0  0  0  0  0  0  0  0  0
   46.3116  -28.0903 -100.9657 O   0  0  0  0  0  0  0  0  0  0  0  0
   46.1730  -30.4231 -101.4904 C   0  0  1  0  0  0  0  0  0  0  0  0
   45.2346  -30.3623 -100.3964 O   0  0  0  0  0  0  0  0  0  0  0  0
   45.5500  -31.2168 -102.6778 C   0  0  2  0  0  0  0  0  0  0  0  0
   50.0726  -27.1024 -106.5720 O   0  0  0  0  0  0  0  0  0  0  0  0
   47.0066  -33.1872 -107.3889 N   0  0  0  0  0  0  0  0  0  0  0  0
   45.9434  -32.3910 -107.1178 C   0  0  0  0  0  0  0  0  0  0  0  0
   45.7069  -31.9212 -105.8751 N   0  0  0  0  0  0  0  0  0  0  0  0
   46.4743  -32.3029 -104.8412 C   0  0  0  0  0  0  0  0  0  0  0  0
   47.5932  -33.1831 -105.0773 C   0  0  0  0  0  0  0  0  0  0  0  0
   47.8399  -33.6116 -106.4155 C   0  0  0  0  0  0  0  0  0  0  0  0
   48.8983  -34.4456 -106.7136 N   0  0  0  0  0  0  0  0  0  0  0  0
   48.1796  -33.4081 -103.8956 N   0  0  0  0  0  0  0  0  0  0  0  0
   47.5289  -32.7651 -102.9723 C   0  0  0  0  0  0  0  0  0  0  0  0
   46.4710  -32.0590 -103.4956 N   0  0  0  0  0  0  0  0  0  0  0  0
  2  1  1  6  0  0  0
  2  3  1  0  0  0  0
  2  5  1  0  0  0  0
  3  4  1  0  0  0  0
  3 17  1  0  0  0  0
  5  6  1  0  0  0  0
  7  6  1  6  0  0  0
  7  8  1  0  0  0  0
  7  9  1  0  0  0  0
 10  9  1  6  0  0  0
 10 11  1  0  0  0  0
 10 12  1  0  0  0  0
 11 16  1  0  0  0  0
 12 13  1  1  0  0  0
 12 14  1  0  0  0  0
 14 15  1  1  0  0  0
 14 16  1  0  0  0  0
 16 27  1  6  0  0  0
 18 19  2  0  0  0  0
 18 23  1  0  0  0  0
 19 20  1  0  0  0  0
 20 21  2  0  0  0  0
 21 22  1  0  0  0  0
 21 27  1  0  0  0  0
 22 23  2  0  0  0  0
 22 25  1  0  0  0  0
 23 24  1  0  0  0  0
 25 26  2  0  0  0  0
 26 27  1  0  0  0  0
M  END
>  <CHROM.1>
125.05692140,-162.58727138,179.69040979,-167.27662729,-179.84925909,58.98652519
-29.79682019,46.80416782,-29.69453590,-104.95141515,-1.16327976,-1.07684705
2.99837046

>  <Name>
ligand

>  <RI>
0

>  <Rbt.Current_Directory>
/home/itssahil/PROJECTS/Mol_Feturizer/New_Systems/rnas/4L81

>  <Rbt.Executable>
rbdock ($Id: //depot/dev/client3/rdock/2013.1/src/exe/rbdock.cxx#4 $)

>  <Rbt.Library>
libRbt.so (2013.1, Build901 2013/11/27)

>  <Rbt.Parameter_File>
/export/apps/rDock/src/rDock_2013.1_src/data/scripts/dock_solv.prm

>  <Rbt.Receptor>
prm/pocket_docking_8.prm

>  <SCORE>
-13.4413

>  <SCORE.INTER>
-10.4391

>  <SCORE.INTER.CONST>
1

>  <SCORE.INTER.POLAR>
0

>  <SCORE.INTER.ROT>
7

>  <SCORE.INTER.SOLV>
14.225

>  <SCORE.INTER.VDW>
-19.9677

>  <SCORE.INTER.norm>
-0.386633

>  <SCORE.INTRA>
-3.00227

>  <SCORE.INTRA.DIHEDRAL>
-2.51077

>  <SCORE.INTRA.DIHEDRAL.0>
8.34559

>  <SCORE.INTRA.POLAR>
0

>  <SCORE.INTRA.POLAR.0>
0

>  <SCORE.INTRA.REPUL>
0

>  <SCORE.INTRA.REPUL.0>
0

>  <SCORE.INTRA.SOLV>
-1.2951

>  <SCORE.INTRA.SOLV.lig_0>
-48.829

>  <SCORE.INTRA.VDW>
-1.09933

>  <SCORE.INTRA.VDW.0>
-1.77092

>  <SCORE.INTRA.norm>
-0.111195

>  <SCORE.RESTR>
0

>  <SCORE.RESTR.CAVITY>
0

>  <SCORE.RESTR.norm>
0

>  <SCORE.SYSTEM>
0

>  <SCORE.SYSTEM.CONST>
0

>  <SCORE.SYSTEM.DIHEDRAL>
0

>  <SCORE.SYSTEM.SOLV>
0

>  <SCORE.SYSTEM.norm>
0

>  <SCORE.heavy>
27

>  <SCORE.norm>
-0.497828

>  <RMSD>
5.137

$$$$
ligand
 OpenBabel11021811503D
libRbt.so/2013.1/901 2013/11/27
 27 29  0  0  0  0  0  0  0  0999 V2000
   43.8165  -27.1792 -104.8373 N   0  0  0  0  0  0  0  0  0  0  0  0
   44.8058  -26.9616 -103.7759 C   0  0  2  0  0  0  0  0  0  0  0  0
   46.0715  -26.3859 -104.3752 C   0  0  0  0  0  0  0  0  0  0  0  0
   46.3551  -25.2105 -104.1996 O   0  0  0  0  0  0  0  0  0  0  0  0
   45.1499  -28.2722 -103.0553 C   0  0  0  0  0  0  0  0  0  0  0  0
   46.1853  -28.0349 -101.9651 C   0  0  0  0  0  0  0  0  0  0  0  0
   46.5529  -29.5340 -100.9747 S   0  0  2  0  0  0  0  0  0  0  0  0
   46.1189  -29.0526  -99.2719 C   0  0  0  0  0  0  0  0  0  0  0  0
   48.3228  -29.2680 -100.9005 C   0  0  0  0  0  0  0  0  0  0  0  0
   49.0974  -30.0574 -101.9221 C   0  0  1  0  0  0  0  0  0  0  0  0
   48.8098  -29.5046 -103.2177 O   0  0  0  0  0  0  0  0  0  0  0  0
   50.4962  -29.7012 -101.6152 C   0  0  1  0  0  0  0  0  0  0  0  0
   51.0815  -30.7161 -100.8010 O   0  0  0  0  0  0  0  0  0  0  0  0
   51.1342  -29.7014 -102.9698 C   0  0  1  0  0  0  0  0  0  0  0  0
   51.5920  -31.0268 -103.3088 O   0  0  0  0  0  0  0  0  0  0  0  0
   50.0247  -29.2539 -103.9683 C   0  0  2  0  0  0  0  0  0  0  0  0
   46.8328  -27.0963 -105.0082 O   0  0  0  0  0  0  0  0  0  0  0  0
   48.6163  -24.2623 -102.8288 N   0  0  0  0  0  0  0  0  0  0  0  0
   48.3747  -25.3778 -102.0973 C   0  0  0  0  0  0  0  0  0  0  0  0
   48.8267  -26.5900 -102.4810 N   0  0  0  0  0  0  0  0  0  0  0  0
   49.4602  -26.7444 -103.6551 C   0  0  0  0  0  0  0  0  0  0  0  0
   49.7028  -25.5896 -104.4858 C   0  0  0  0  0  0  0  0  0  0  0  0
   49.2565  -24.3186 -104.0158 C   0  0  0  0  0  0  0  0  0  0  0  0
   49.4643  -23.1719 -104.7550 N   0  0  0  0  0  0  0  0  0  0  0  0
   50.3362  -26.0153 -105.5850 N   0  0  0  0  0  0  0  0  0  0  0  0
   50.4931  -27.3033 -105.5096 C   0  0  0  0  0  0  0  0  0  0  0  0
   49.9797  -27.8091 -104.3382 N   0  0  0  0  0  0  0  0  0  0  0  0
  2  1  1  6  0  0  0
  2  3  1  0  0  0  0
  2  5  1  0  0  0  0
  3  4  1  0  0  0  0
  3 17  1  0  0  0  0
  5  6  1  0  0  0  0
  7  6  1  6  0  0  0
  7  8  1  0  0  0  0
  7  9  1  0  0  0  0
 10  9  1  1  0  0  0
 10 11  1  0  0  0  0
 10 12  1  0  0  0  0
 11 16  1  0  0  0  0
 12 13  1  1  0  0  0
 12 14  1  0  0  0  0
 14 15  1  6  0  0  0
 14 16  1  0  0  0  0
 16 27  1  1  0  0  0
 18 19  2  0  0  0  0
 18 23  1  0  0  0  0
 19 20  1  0  0  0  0
 20 21  2  0  0  0  0
 21 22  1  0  0  0  0
 21 27  1  0  0  0  0
 22 23  2  0  0  0  0
 22 25  1  0  0  0  0
 23 24  1  0  0  0  0
 25 26  2  0  0  0  0
 26 27  1  0  0  0  0
M  END
>  <CHROM.1>
106.79028359,179.51727344,175.62380180,-120.55960348,-97.91714398,69.76649579
33.50203769,48.30344423,-27.71478133,-103.05117645,1.94866699,0.20968397
-0.59081299

>  <Name>
ligand

>  <RI>
0

>  <Rbt.Current_Directory>
/home/itssahil/PROJECTS/Mol_Feturizer/New_Systems/rnas/4L81

>  <Rbt.Executable>
rbdock ($Id: //depot/dev/client3/rdock/2013.1/src/exe/rbdock.cxx#4 $)

>  <Rbt.Library>
libRbt.so (2013.1, Build901 2013/11/27)

>  <Rbt.Parameter_File>
/export/apps/rDock/src/rDock_2013.1_src/data/scripts/dock_solv.prm

>  <Rbt.Receptor>
prm/pocket_docking_5.prm

>  <SCORE>
-15.6944

>  <SCORE.INTER>
-11.8666

>  <SCORE.INTER.CONST>
1

>  <SCORE.INTER.POLAR>
0

>  <SCORE.INTER.ROT>
7

>  <SCORE.INTER.SOLV>
12.6711

>  <SCORE.INTER.VDW>
-20.4015

>  <SCORE.INTER.norm>
-0.439505

>  <SCORE.INTRA>
-3.82776

>  <SCORE.INTRA.DIHEDRAL>
1.63548

>  <SCORE.INTRA.DIHEDRAL.0>
8.34559

>  <SCORE.INTRA.POLAR>
0

>  <SCORE.INTRA.POLAR.0>
0

>  <SCORE.INTRA.REPUL>
0

>  <SCORE.INTRA.REPUL.0>
0

>  <SCORE.INTRA.SOLV>
-0.990187

>  <SCORE.INTRA.SOLV.lig_0>
-48.829

>  <SCORE.INTRA.VDW>
-4.15041

>  <SCORE.INTRA.VDW.0>
-1.77092

>  <SCORE.INTRA.norm>
-0.141769

>  <SCORE.RESTR>
0

>  <SCORE.RESTR.CAVITY>
0

>  <SCORE.RESTR.norm>
0

>  <SCORE.SYSTEM>
0

>  <SCORE.SYSTEM.CONST>
0

>  <SCORE.SYSTEM.DIHEDRAL>
0

>  <SCORE.SYSTEM.SOLV>
0

>  <SCORE.SYSTEM.norm>
0

>  <SCORE.heavy>
27

>  <SCORE.norm>
-0.581274

>  <RMSD>
5.156

$$$$
ligand
 OpenBabel11021811503D
libRbt.so/2013.1/901 2013/11/27
 27 29  0  0  0  0  0  0  0  0999 V2000
   50.2160  -26.1852 -103.5632 N   0  0  0  0  0  0  0  0  0  0  0  0
   48.8296  -26.6609 -103.4966 C   0  0  2  0  0  0  0  0  0  0  0  0
   48.6746  -27.8893 -104.3682 C   0  0  0  0  0  0  0  0  0  0  0  0
   48.8826  -27.8201 -105.5702 O   0  0  0  0  0  0  0  0  0  0  0  0
   47.8458  -25.5851 -103.9763 C   0  0  0  0  0  0  0  0  0  0  0  0
   46.4269  -25.9132 -103.5338 C   0  0  0  0  0  0  0  0  0  0  0  0
   45.6862  -27.3163 -104.4535 S   0  0  2  0  0  0  0  0  0  0  0  0
   44.0978  -26.6573 -105.0554 C   0  0  0  0  0  0  0  0  0  0  0  0
   45.0983  -28.1883 -103.0034 C   0  0  0  0  0  0  0  0  0  0  0  0
   44.3801  -29.4734 -103.3189 C   0  0  1  0  0  0  0  0  0  0  0  0
   45.2695  -30.2979 -104.0910 O   0  0  0  0  0  0  0  0  0  0  0  0
   44.2604  -30.1121 -101.9940 C   0  0  1  0  0  0  0  0  0  0  0  0
   42.9668  -29.8514 -101.4515 O   0  0  0  0  0  0  0  0  0  0  0  0
   44.3928  -31.5667 -102.3235 C   0  0  1  0  0  0  0  0  0  0  0  0
   43.1055  -32.1243 -102.6601 O   0  0  0  0  0  0  0  0  0  0  0  0
   45.3414  -31.6440 -103.5573 C   0  0  2  0  0  0  0  0  0  0  0  0
   48.3741  -28.9620 -103.8744 O   0  0  0  0  0  0  0  0  0  0  0  0
   49.6973  -30.7851 -100.6441 N   0  0  0  0  0  0  0  0  0  0  0  0
   48.4721  -30.2268 -100.4854 C   0  0  0  0  0  0  0  0  0  0  0  0
   47.4304  -30.5647 -101.2739 N   0  0  0  0  0  0  0  0  0  0  0  0
   47.5982  -31.4069 -102.3064 C   0  0  0  0  0  0  0  0  0  0  0  0
   48.8962  -31.9934 -102.5378 C   0  0  0  0  0  0  0  0  0  0  0  0
   49.9563  -31.6512 -101.6465 C   0  0  0  0  0  0  0  0  0  0  0  0
   51.2200  -32.1832 -101.8038 N   0  0  0  0  0  0  0  0  0  0  0  0
   48.7923  -32.7788 -103.6163 N   0  0  0  0  0  0  0  0  0  0  0  0
   47.5735  -32.7212 -104.0644 C   0  0  0  0  0  0  0  0  0  0  0  0
   46.7880  -31.8967 -103.2932 N   0  0  0  0  0  0  0  0  0  0  0  0
  2  1  1  6  0  0  0
  2  3  1  0  0  0  0
  2  5  1  0  0  0  0
  3  4  1  0  0  0  0
  3 17  1  0  0  0  0
  5  6  1  0  0  0  0
  7  6  1  1  0  0  0
  7  8  1  0  0  0  0
  7  9  1  0  0  0  0
 10  9  1  1  0  0  0
 10 11  1  0  0  0  0
 10 12  1  0  0  0  0
 11 16  1  0  0  0  0
 12 13  1  6  0  0  0
 12 14  1  0  0  0  0
 14 15  1  6  0  0  0
 14 16  1  0  0  0  0
 16 27  1  1  0  0  0
 18 19  2  0  0  0  0
 18 23  1  0  0  0  0
 19 20  1  0  0  0  0
 20 21  2  0  0  0  0
 21 22  1  0  0  0  0
 21 27  1  0  0  0  0
 22 23  2  0  0  0  0
 22 25  1  0  0  0  0
 23 24  1  0  0  0  0
 25 26  2  0  0  0  0
 26 27  1  0  0  0  0
M  END
>  <CHROM.1>
-61.26699415,-163.45564057,-72.26993401,-127.55922949,179.76136924,56.40199590
73.38897323,46.91734663,-29.56230807,-103.13481087,-1.97889776,0.05348443
2.79018955

>  <Name>
ligand

>  <RI>
0

>  <Rbt.Current_Directory>
/home/itssahil/PROJECTS/Mol_Feturizer/New_Systems/rnas/4L81

>  <Rbt.Executable>
rbdock ($Id: //depot/dev/client3/rdock/2013.1/src/exe/rbdock.cxx#4 $)

>  <Rbt.Library>
libRbt.so (2013.1, Build901 2013/11/27)

>  <Rbt.Parameter_File>
/export/apps/rDock/src/rDock_2013.1_src/data/scripts/dock_solv.prm

>  <Rbt.Receptor>
prm/pocket_docking_3.prm

>  <SCORE>
-14.5392

>  <SCORE.INTER>
-11.0644

>  <SCORE.INTER.CONST>
1

>  <SCORE.INTER.POLAR>
0

>  <SCORE.INTER.ROT>
7

>  <SCORE.INTER.SOLV>
15.1383

>  <SCORE.INTER.VDW>
-20.689

>  <SCORE.INTER.norm>
-0.409793

>  <SCORE.INTRA>
-3.4748

>  <SCORE.INTRA.DIHEDRAL>
0.873949

>  <SCORE.INTRA.DIHEDRAL.0>
8.34559

>  <SCORE.INTRA.POLAR>
0

>  <SCORE.INTRA.POLAR.0>
0

>  <SCORE.INTRA.REPUL>
0

>  <SCORE.INTRA.REPUL.0>
0

>  <SCORE.INTRA.SOLV>
-1.08348

>  <SCORE.INTRA.SOLV.lig_0>
-48.829

>  <SCORE.INTRA.VDW>
-3.37003

>  <SCORE.INTRA.VDW.0>
-1.77092

>  <SCORE.INTRA.norm>
-0.128696

>  <SCORE.RESTR>
0

>  <SCORE.RESTR.CAVITY>
0

>  <SCORE.RESTR.norm>
0

>  <SCORE.SYSTEM>
0

>  <SCORE.SYSTEM.CONST>
0

>  <SCORE.SYSTEM.DIHEDRAL>
0

>  <SCORE.SYSTEM.SOLV>
0

>  <SCORE.SYSTEM.norm>
0

>  <SCORE.heavy>
27

>  <SCORE.norm>
-0.538489

>  <RMSD>
5.161

$$$$
ligand
 OpenBabel11021811503D
libRbt.so/2013.1/901 2013/11/27
 27 29  0  0  0  0  0  0  0  0999 V2000
   47.3530  -24.2121 -107.4870 N   0  0  0  0  0  0  0  0  0  0  0  0
   45.9443  -24.0435 -107.1127 C   0  0  2  0  0  0  0  0  0  0  0  0
   45.5606  -22.5838 -107.2338 C   0  0  0  0  0  0  0  0  0  0  0  0
   44.6355  -22.2497 -107.9585 O   0  0  0  0  0  0  0  0  0  0  0  0
   45.6898  -24.5054 -105.6715 C   0  0  0  0  0  0  0  0  0  0  0  0
   45.6646  -26.0250 -105.5864 C   0  0  0  0  0  0  0  0  0  0  0  0
   45.4151  -26.6522 -103.8813 S   0  0  2  0  0  0  0  0  0  0  0  0
   47.0326  -26.4029 -103.0806 C   0  0  0  0  0  0  0  0  0  0  0  0
   45.5742  -28.3855 -104.3048 C   0  0  0  0  0  0  0  0  0  0  0  0
   44.7929  -29.3037 -103.4031 C   0  0  1  0  0  0  0  0  0  0  0  0
   45.0768  -30.6566 -103.7980 O   0  0  0  0  0  0  0  0  0  0  0  0
   45.4434  -29.1037 -102.0937 C   0  0  1  0  0  0  0  0  0  0  0  0
   44.6915  -28.1677 -101.3231 O   0  0  0  0  0  0  0  0  0  0  0  0
   45.3517  -30.4648 -101.4763 C   0  0  1  0  0  0  0  0  0  0  0  0
   44.0970  -30.6168 -100.7806 O   0  0  0  0  0  0  0  0  0  0  0  0
   45.4280  -31.4790 -102.6568 C   0  0  2  0  0  0  0  0  0  0  0  0
   46.1483  -21.7358 -106.5854 O   0  0  0  0  0  0  0  0  0  0  0  0
   50.6361  -31.8228 -101.6792 N   0  0  0  0  0  0  0  0  0  0  0  0
   49.7289  -31.0266 -101.0618 C   0  0  0  0  0  0  0  0  0  0  0  0
   48.4178  -31.0660 -101.3788 N   0  0  0  0  0  0  0  0  0  0  0  0
   47.9798  -31.8386 -102.3861 C   0  0  0  0  0  0  0  0  0  0  0  0
   48.9179  -32.6722 -103.0984 C   0  0  0  0  0  0  0  0  0  0  0  0
   50.2857  -32.6410 -102.6940 C   0  0  0  0  0  0  0  0  0  0  0  0
   51.2340  -33.4200 -103.3254 N   0  0  0  0  0  0  0  0  0  0  0  0
   48.2322  -33.3269 -104.0429 N   0  0  0  0  0  0  0  0  0  0  0  0
   46.9838  -32.9705 -103.9816 C   0  0  0  0  0  0  0  0  0  0  0  0
   46.7652  -32.0600 -102.9741 N   0  0  0  0  0  0  0  0  0  0  0  0
  2  1  1  1  0  0  0
  2  3  1  0  0  0  0
  2  5  1  0  0  0  0
  3  4  1  0  0  0  0
  3 17  1  0  0  0  0
  5  6  1  0  0  0  0
  7  6  1  6  0  0  0
  7  8  1  0  0  0  0
  7  9  1  0  0  0  0
 10  9  1  6  0  0  0
 10 11  1  0  0  0  0
 10 12  1  0  0  0  0
 11 16  1  0  0  0  0
 12 13  1  1  0  0  0
 12 14  1  0  0  0  0
 14 15  1  6  0  0  0
 14 16  1  0  0  0  0
 16 27  1  6  0  0  0
 18 19  2  0  0  0  0
 18 23  1  0  0  0  0
 19 20  1  0  0  0  0
 20 21  2  0  0  0  0
 21 22  1  0  0  0  0
 21 27  1  0  0  0  0
 22 23  2  0  0  0  0
 22 25  1  0  0  0  0
 23 24  1  0  0  0  0
 25 26  2  0  0  0  0
 26 27  1  0  0  0  0
M  END
>  <CHROM.1>
122.62312976,-75.76252639,178.25123858,-75.57108498,-150.93449850,-176.34747117
112.97181715,46.64356657,-28.64886144,-103.77174930,-1.86501924,-0.40241696
2.58101504

>  <Name>
ligand

>  <RI>
0

>  <Rbt.Current_Directory>
/home/itssahil/PROJECTS/Mol_Feturizer/New_Systems/rnas/4L81

>  <Rbt.Executable>
rbdock ($Id: //depot/dev/client3/rdock/2013.1/src/exe/rbdock.cxx#4 $)

>  <Rbt.Library>
libRbt.so (2013.1, Build901 2013/11/27)

>  <Rbt.Parameter_File>
/export/apps/rDock/src/rDock_2013.1_src/data/scripts/dock_solv.prm

>  <Rbt.Receptor>
prm/pocket_docking_8.prm

>  <SCORE>
-14.765

>  <SCORE.INTER>
-13.5825

>  <SCORE.INTER.CONST>
1

>  <SCORE.INTER.POLAR>
0

>  <SCORE.INTER.ROT>
7

>  <SCORE.INTER.SOLV>
12.2702

>  <SCORE.INTER.VDW>
-21.4118

>  <SCORE.INTER.norm>
-0.503057

>  <SCORE.INTRA>
-1.18251

>  <SCORE.INTRA.DIHEDRAL>
-1.00723

>  <SCORE.INTRA.DIHEDRAL.0>
8.34559

>  <SCORE.INTRA.POLAR>
0

>  <SCORE.INTRA.POLAR.0>
0

>  <SCORE.INTRA.REPUL>
0

>  <SCORE.INTRA.REPUL.0>
0

>  <SCORE.INTRA.SOLV>
-0.458171

>  <SCORE.INTRA.SOLV.lig_0>
-48.829

>  <SCORE.INTRA.VDW>
-0.449812

>  <SCORE.INTRA.VDW.0>
-1.77092

>  <SCORE.INTRA.norm>
-0.0437967

>  <SCORE.RESTR>
0

>  <SCORE.RESTR.CAVITY>
0

>  <SCORE.RESTR.norm>
0

>  <SCORE.SYSTEM>
0

>  <SCORE.SYSTEM.CONST>
0

>  <SCORE.SYSTEM.DIHEDRAL>
0

>  <SCORE.SYSTEM.SOLV>
0

>  <SCORE.SYSTEM.norm>
0

>  <SCORE.heavy>
27

>  <SCORE.norm>
-0.546854

>  <RMSD>
5.165

$$$$
ligand
 OpenBabel11021811503D
libRbt.so/2013.1/901 2013/11/27
 27 29  0  0  0  0  0  0  0  0999 V2000
   44.2203  -28.2487 -103.9238 N   0  0  0  0  0  0  0  0  0  0  0  0
   45.2221  -29.2540 -104.2959 C   0  0  2  0  0  0  0  0  0  0  0  0
   45.1395  -29.5230 -105.7837 C   0  0  0  0  0  0  0  0  0  0  0  0
   46.1536  -29.7613 -106.4222 O   0  0  0  0  0  0  0  0  0  0  0  0
   44.9993  -30.5713 -103.5406 C   0  0  0  0  0  0  0  0  0  0  0  0
   45.3302  -30.4110 -102.0635 C   0  0  0  0  0  0  0  0  0  0  0  0
   47.0573  -29.8736 -101.7610 S   0  0  2  0  0  0  0  0  0  0  0  0
   47.3255  -30.2312  -99.9947 C   0  0  0  0  0  0  0  0  0  0  0  0
   46.6810  -28.1263 -101.6410 C   0  0  0  0  0  0  0  0  0  0  0  0
   47.8461  -27.2316 -101.9708 C   0  0  1  0  0  0  0  0  0  0  0  0
   49.0514  -27.9210 -101.5979 O   0  0  0  0  0  0  0  0  0  0  0  0
   47.8218  -27.1974 -103.4459 C   0  0  1  0  0  0  0  0  0  0  0  0
   47.1532  -26.0168 -103.8869 O   0  0  0  0  0  0  0  0  0  0  0  0
   49.2768  -27.1202 -103.7912 C   0  0  1  0  0  0  0  0  0  0  0  0
   49.7158  -25.7461 -103.8102 O   0  0  0  0  0  0  0  0  0  0  0  0
   50.0273  -27.8996 -102.6699 C   0  0  2  0  0  0  0  0  0  0  0  0
   44.0601  -29.5368 -106.3490 O   0  0  0  0  0  0  0  0  0  0  0  0
   51.3981  -32.7087 -100.8834 N   0  0  0  0  0  0  0  0  0  0  0  0
   51.2177  -31.5772 -100.1589 C   0  0  0  0  0  0  0  0  0  0  0  0
   50.8257  -30.4210 -100.7339 N   0  0  0  0  0  0  0  0  0  0  0  0
   50.6860  -30.3319 -102.0666 C   0  0  0  0  0  0  0  0  0  0  0  0
   50.9082  -31.5021 -102.8814 C   0  0  0  0  0  0  0  0  0  0  0  0
   51.2675  -32.7177 -102.2269 C   0  0  0  0  0  0  0  0  0  0  0  0
   51.4851  -33.8765 -102.9443 N   0  0  0  0  0  0  0  0  0  0  0  0
   50.7110  -31.1438 -104.1556 N   0  0  0  0  0  0  0  0  0  0  0  0
   50.4026  -29.8818 -104.1963 C   0  0  0  0  0  0  0  0  0  0  0  0
   50.3641  -29.3282 -102.9378 N   0  0  0  0  0  0  0  0  0  0  0  0
  2  1  1  1  0  0  0
  2  3  1  0  0  0  0
  2  5  1  0  0  0  0
  3  4  1  0  0  0  0
  3 17  1  0  0  0  0
  5  6  1  0  0  0  0
  7  6  1  1  0  0  0
  7  8  1  0  0  0  0
  7  9  1  0  0  0  0
 10  9  1  6  0  0  0
 10 11  1  0  0  0  0
 10 12  1  0  0  0  0
 11 16  1  0  0  0  0
 12 13  1  1  0  0  0
 12 14  1  0  0  0  0
 14 15  1  1  0  0  0
 14 16  1  0  0  0  0
 16 27  1  6  0  0  0
 18 19  2  0  0  0  0
 18 23  1  0  0  0  0
 19 20  1  0  0  0  0
 20 21  2  0  0  0  0
 21 22  1  0  0  0  0
 21 27  1  0  0  0  0
 22 23  2  0  0  0  0
 22 25  1  0  0  0  0
 23 24  1  0  0  0  0
 25 26  2  0  0  0  0
 26 27  1  0  0  0  0
M  END
>  <CHROM.1>
144.70839817,-69.88649077,-58.55996191,-163.97589704,-155.19904650,-30.59539205
-47.70306495,48.24589597,-29.51389068,-102.94021518,2.67783615,-0.42315025
-0.03486905

>  <Name>
ligand

>  <RI>
0

>  <Rbt.Current_Directory>
/home/itssahil/PROJECTS/Mol_Feturizer/New_Systems/rnas/4L81

>  <Rbt.Executable>
rbdock ($Id: //depot/dev/client3/rdock/2013.1/src/exe/rbdock.cxx#4 $)

>  <Rbt.Library>
libRbt.so (2013.1, Build901 2013/11/27)

>  <Rbt.Parameter_File>
/export/apps/rDock/src/rDock_2013.1_src/data/scripts/dock_solv.prm

>  <Rbt.Receptor>
prm/pocket_docking_4.prm

>  <SCORE>
-11.6655

>  <SCORE.INTER>
-11.1371

>  <SCORE.INTER.CONST>
1

>  <SCORE.INTER.POLAR>
0

>  <SCORE.INTER.ROT>
7

>  <SCORE.INTER.SOLV>
12.6126

>  <SCORE.INTER.VDW>
-19.8956

>  <SCORE.INTER.norm>
-0.412486

>  <SCORE.INTRA>
-0.528373

>  <SCORE.INTRA.DIHEDRAL>
1.81693

>  <SCORE.INTRA.DIHEDRAL.0>
8.34559

>  <SCORE.INTRA.POLAR>
0

>  <SCORE.INTRA.POLAR.0>
0

>  <SCORE.INTRA.REPUL>
0

>  <SCORE.INTRA.REPUL.0>
0

>  <SCORE.INTRA.SOLV>
2.48729

>  <SCORE.INTRA.SOLV.lig_0>
-48.829

>  <SCORE.INTRA.VDW>
-2.68048

>  <SCORE.INTRA.VDW.0>
-1.77092

>  <SCORE.INTRA.norm>
-0.0195694

>  <SCORE.RESTR>
0

>  <SCORE.RESTR.CAVITY>
0

>  <SCORE.RESTR.norm>
0

>  <SCORE.SYSTEM>
0

>  <SCORE.SYSTEM.CONST>
0

>  <SCORE.SYSTEM.DIHEDRAL>
0

>  <SCORE.SYSTEM.SOLV>
0

>  <SCORE.SYSTEM.norm>
0

>  <SCORE.heavy>
27

>  <SCORE.norm>
-0.432055

>  <RMSD>
5.169

$$$$
ligand
 OpenBabel11021811503D
libRbt.so/2013.1/901 2013/11/27
 27 29  0  0  0  0  0  0  0  0999 V2000
   45.8423  -26.7086 -107.0517 N   0  0  0  0  0  0  0  0  0  0  0  0
   46.8804  -27.2203 -106.1499 C   0  0  2  0  0  0  0  0  0  0  0  0
   48.0194  -27.7952 -106.9653 C   0  0  0  0  0  0  0  0  0  0  0  0
   47.8024  -28.2884 -108.0618 O   0  0  0  0  0  0  0  0  0  0  0  0
   46.3289  -28.3156 -105.2271 C   0  0  0  0  0  0  0  0  0  0  0  0
   47.2738  -28.5670 -104.0605 C   0  0  0  0  0  0  0  0  0  0  0  0
   46.6152  -29.7655 -102.8386 S   0  0  2  0  0  0  0  0  0  0  0  0
   45.2390  -28.8729 -102.0457 C   0  0  0  0  0  0  0  0  0  0  0  0
   47.8841  -29.4787 -101.6071 C   0  0  0  0  0  0  0  0  0  0  0  0
   48.6497  -30.7178 -101.2261 C   0  0  1  0  0  0  0  0  0  0  0  0
   48.3928  -31.7198 -102.2245 O   0  0  0  0  0  0  0  0  0  0  0  0
   50.0537  -30.2993 -101.4034 C   0  0  1  0  0  0  0  0  0  0  0  0
   50.6017  -29.9145 -100.1437 O   0  0  0  0  0  0  0  0  0  0  0  0
   50.7078  -31.5581 -101.8825 C   0  0  1  0  0  0  0  0  0  0  0  0
   51.1343  -32.3601 -100.7616 O   0  0  0  0  0  0  0  0  0  0  0  0
   49.6229  -32.3237 -102.6979 C   0  0  2  0  0  0  0  0  0  0  0  0
   49.1638  -27.7409 -106.5502 O   0  0  0  0  0  0  0  0  0  0  0  0
   51.0432  -33.9799 -107.5392 N   0  0  0  0  0  0  0  0  0  0  0  0
   51.3530  -34.5459 -106.3469 C   0  0  0  0  0  0  0  0  0  0  0  0
   50.8905  -34.0457 -105.1821 N   0  0  0  0  0  0  0  0  0  0  0  0
   50.1747  -32.9096 -105.1609 C   0  0  0  0  0  0  0  0  0  0  0  0
   49.8561  -32.2504 -106.4045 C   0  0  0  0  0  0  0  0  0  0  0  0
   50.3184  -32.8438 -107.6167 C   0  0  0  0  0  0  0  0  0  0  0  0
   50.0413  -32.2716 -108.8417 N   0  0  0  0  0  0  0  0  0  0  0  0
   49.1496  -31.1541 -106.1049 N   0  0  0  0  0  0  0  0  0  0  0  0
   49.0161  -31.0776 -104.8142 C   0  0  0  0  0  0  0  0  0  0  0  0
   49.6210  -32.1365 -104.1782 N   0  0  0  0  0  0  0  0  0  0  0  0
  2  1  1  6  0  0  0
  2  3  1  0  0  0  0
  2  5  1  0  0  0  0
  3  4  1  0  0  0  0
  3 17  1  0  0  0  0
  5  6  1  0  0  0  0
  7  6  1  6  0  0  0
  7  8  1  0  0  0  0
  7  9  1  0  0  0  0
 10  9  1  6  0  0  0
 10 11  1  0  0  0  0
 10 12  1  0  0  0  0
 11 16  1  0  0  0  0
 12 13  1  1  0  0  0
 12 14  1  0  0  0  0
 14 15  1  1  0  0  0
 14 16  1  0  0  0  0
 16 27  1  6  0  0  0
 18 19  2  0  0  0  0
 18 23  1  0  0  0  0
 19 20  1  0  0  0  0
 20 21  2  0  0  0  0
 21 22  1  0  0  0  0
 21 27  1  0  0  0  0
 22 23  2  0  0  0  0
 22 25  1  0  0  0  0
 23 24  1  0  0  0  0
 25 26  2  0  0  0  0
 26 27  1  0  0  0  0
M  END
>  <CHROM.1>
-30.18002588,-164.39369357,175.21720405,-69.53245269,-122.09621470,15.60470645
-150.08818280,48.81618101,-30.59911182,-104.41963511,-3.07821805,-0.90844227
1.59645192

>  <Name>
ligand

>  <RI>
0

>  <Rbt.Current_Directory>
/home/itssahil/PROJECTS/Mol_Feturizer/New_Systems/rnas/4L81

>  <Rbt.Executable>
rbdock ($Id: //depot/dev/client3/rdock/2013.1/src/exe/rbdock.cxx#4 $)

>  <Rbt.Library>
libRbt.so (2013.1, Build901 2013/11/27)

>  <Rbt.Parameter_File>
/export/apps/rDock/src/rDock_2013.1_src/data/scripts/dock_solv.prm

>  <Rbt.Receptor>
prm/pocket_docking_7.prm

>  <SCORE>
-3.1804

>  <SCORE.INTER>
-3.87262

>  <SCORE.INTER.CONST>
1

>  <SCORE.INTER.POLAR>
0

>  <SCORE.INTER.ROT>
7

>  <SCORE.INTER.SOLV>
16.5161

>  <SCORE.INTER.VDW>
-16.3538

>  <SCORE.INTER.norm>
-0.14343

>  <SCORE.INTRA>
0.690473

>  <SCORE.INTRA.DIHEDRAL>
4.51452

>  <SCORE.INTRA.DIHEDRAL.0>
8.34559

>  <SCORE.INTRA.POLAR>
0

>  <SCORE.INTRA.POLAR.0>
0

>  <SCORE.INTRA.REPUL>
0

>  <SCORE.INTRA.REPUL.0>
0

>  <SCORE.INTRA.SOLV>
-1.16029

>  <SCORE.INTRA.SOLV.lig_0>
-48.829

>  <SCORE.INTRA.VDW>
-0.986642

>  <SCORE.INTRA.VDW.0>
-1.77092

>  <SCORE.INTRA.norm>
0.0255731

>  <SCORE.RESTR>
0.00174487

>  <SCORE.RESTR.CAVITY>
0.00174487

>  <SCORE.RESTR.norm>
6.46247e-05

>  <SCORE.SYSTEM>
0

>  <SCORE.SYSTEM.CONST>
0

>  <SCORE.SYSTEM.DIHEDRAL>
0

>  <SCORE.SYSTEM.SOLV>
0

>  <SCORE.SYSTEM.norm>
0

>  <SCORE.heavy>
27

>  <SCORE.norm>
-0.117793

>  <RMSD>
5.179

$$$$
ligand
 OpenBabel11021811503D
libRbt.so/2013.1/901 2013/11/27
 27 29  0  0  0  0  0  0  0  0999 V2000
   48.8294  -29.1499 -105.2129 N   0  0  0  0  0  0  0  0  0  0  0  0
   48.8757  -28.0972 -106.2339 C   0  0  2  0  0  0  0  0  0  0  0  0
   48.7564  -26.7423 -105.5684 C   0  0  0  0  0  0  0  0  0  0  0  0
   49.1800  -25.7429 -106.1291 O   0  0  0  0  0  0  0  0  0  0  0  0
   47.7356  -28.2530 -107.2494 C   0  0  0  0  0  0  0  0  0  0  0  0
   46.3818  -28.1993 -106.5559 C   0  0  0  0  0  0  0  0  0  0  0  0
   46.0373  -29.6741 -105.5216 S   0  0  2  0  0  0  0  0  0  0  0  0
   45.4390  -30.9159 -106.7130 C   0  0  0  0  0  0  0  0  0  0  0  0
   44.4595  -29.0929 -104.9038 C   0  0  0  0  0  0  0  0  0  0  0  0
   44.2104  -29.4372 -103.4595 C   0  0  1  0  0  0  0  0  0  0  0  0
   44.5278  -30.8274 -103.2762 O   0  0  0  0  0  0  0  0  0  0  0  0
   45.2587  -28.6716 -102.7577 C   0  0  1  0  0  0  0  0  0  0  0  0
   44.7117  -27.4484 -102.2677 O   0  0  0  0  0  0  0  0  0  0  0  0
   45.6043  -29.5721 -101.6124 C   0  0  1  0  0  0  0  0  0  0  0  0
   44.7306  -29.3181 -100.4929 O   0  0  0  0  0  0  0  0  0  0  0  0
   45.3921  -31.0267 -102.1293 C   0  0  2  0  0  0  0  0  0  0  0  0
   48.2084  -26.6332 -104.4855 O   0  0  0  0  0  0  0  0  0  0  0  0
   50.6130  -31.9808 -101.9557 N   0  0  0  0  0  0  0  0  0  0  0  0
   49.9076  -31.0985 -101.2062 C   0  0  0  0  0  0  0  0  0  0  0  0
   48.5680  -30.9820 -101.3202 N   0  0  0  0  0  0  0  0  0  0  0  0
   47.8966  -31.6800 -102.2504 C   0  0  0  0  0  0  0  0  0  0  0  0
   48.6138  -32.6013 -103.0986 C   0  0  0  0  0  0  0  0  0  0  0  0
   50.0213  -32.7340 -102.9068 C   0  0  0  0  0  0  0  0  0  0  0  0
   50.7669  -33.6038 -103.6764 N   0  0  0  0  0  0  0  0  0  0  0  0
   47.7224  -33.1552 -103.9289 N   0  0  0  0  0  0  0  0  0  0  0  0
   46.5472  -32.6600 -103.6778 C   0  0  0  0  0  0  0  0  0  0  0  0
   46.5898  -31.7501 -102.6473 N   0  0  0  0  0  0  0  0  0  0  0  0
  2  1  1  1  0  0  0
  2  3  1  0  0  0  0
  2  5  1  0  0  0  0
  3  4  1  0  0  0  0
  3 17  1  0  0  0  0
  5  6  1  0  0  0  0
  7  6  1  6  0  0  0
  7  8  1  0  0  0  0
  7  9  1  0  0  0  0
 10  9  1  6  0  0  0
 10 11  1  0  0  0  0
 10 12  1  0  0  0  0
 11 16  1  0  0  0  0
 12 13  1  1  0  0  0
 12 14  1  0  0  0  0
 14 15  1  1  0  0  0
 14 16  1  0  0  0  0
 16 27  1  6  0  0  0
 18 19  2  0  0  0  0
 18 23  1  0  0  0  0
 19 20  1  0  0  0  0
 20 21  2  0  0  0  0
 21 22  1  0  0  0  0
 21 27  1  0  0  0  0
 22 23  2  0  0  0  0
 22 25  1  0  0  0  0
 23 24  1  0  0  0  0
 25 26  2  0  0  0  0
 26 27  1  0  0  0  0
M  END
>  <CHROM.1>
156.88946986,58.92248252,-70.06178946,-81.91832835,-141.82890893,-47.57762114
146.88998444,47.13344818,-29.94314794,-103.85481620,-1.89707609,-0.34634693
2.42821115

>  <Name>
ligand

>  <RI>
0

>  <Rbt.Current_Directory>
/home/itssahil/PROJECTS/Mol_Feturizer/New_Systems/rnas/4L81

>  <Rbt.Executable>
rbdock ($Id: //depot/dev/client3/rdock/2013.1/src/exe/rbdock.cxx#4 $)

>  <Rbt.Library>
libRbt.so (2013.1, Build901 2013/11/27)

>  <Rbt.Parameter_File>
/export/apps/rDock/src/rDock_2013.1_src/data/scripts/dock_solv.prm

>  <Rbt.Receptor>
prm/pocket_docking_4.prm

>  <SCORE>
-10.251

>  <SCORE.INTER>
-9.75346

>  <SCORE.INTER.CONST>
1

>  <SCORE.INTER.POLAR>
0

>  <SCORE.INTER.ROT>
7

>  <SCORE.INTER.SOLV>
12.8758

>  <SCORE.INTER.VDW>
-19.0609

>  <SCORE.INTER.norm>
-0.361239

>  <SCORE.INTRA>
-0.497526

>  <SCORE.INTRA.DIHEDRAL>
0.033685

>  <SCORE.INTRA.DIHEDRAL.0>
8.34559

>  <SCORE.INTRA.POLAR>
0

>  <SCORE.INTRA.POLAR.0>
0

>  <SCORE.INTRA.REPUL>
0

>  <SCORE.INTRA.REPUL.0>
0

>  <SCORE.INTRA.SOLV>
1.81628

>  <SCORE.INTRA.SOLV.lig_0>
-48.829

>  <SCORE.INTRA.VDW>
-1.42251

>  <SCORE.INTRA.VDW.0>
-1.77092

>  <SCORE.INTRA.norm>
-0.0184269

>  <SCORE.RESTR>
0

>  <SCORE.RESTR.CAVITY>
0

>  <SCORE.RESTR.norm>
0

>  <SCORE.SYSTEM>
0

>  <SCORE.SYSTEM.CONST>
0

>  <SCORE.SYSTEM.DIHEDRAL>
0

>  <SCORE.SYSTEM.SOLV>
0

>  <SCORE.SYSTEM.norm>
0

>  <SCORE.heavy>
27

>  <SCORE.norm>
-0.379666

>  <RMSD>
5.186

$$$$
ligand
 OpenBabel11021811503D
libRbt.so/2013.1/901 2013/11/27
 27 29  0  0  0  0  0  0  0  0999 V2000
   49.6029  -25.7341 -103.1201 N   0  0  0  0  0  0  0  0  0  0  0  0
   49.7491  -26.9910 -103.8628 C   0  0  2  0  0  0  0  0  0  0  0  0
   49.6714  -26.7117 -105.3489 C   0  0  0  0  0  0  0  0  0  0  0  0
   49.9487  -25.6031 -105.7811 O   0  0  0  0  0  0  0  0  0  0  0  0
   48.6484  -27.9928 -103.4882 C   0  0  0  0  0  0  0  0  0  0  0  0
   47.3176  -27.2831 -103.2826 C   0  0  0  0  0  0  0  0  0  0  0  0
   46.0466  -27.7521 -104.5186 S   0  0  2  0  0  0  0  0  0  0  0  0
   45.3451  -26.1580 -105.0538 C   0  0  0  0  0  0  0  0  0  0  0  0
   44.7995  -28.2212 -103.3213 C   0  0  0  0  0  0  0  0  0  0  0  0
   44.2660  -29.6155 -103.5168 C   0  0  1  0  0  0  0  0  0  0  0  0
   45.2841  -30.3894 -104.1738 O   0  0  0  0  0  0  0  0  0  0  0  0
   44.1776  -30.1260 -102.1350 C   0  0  1  0  0  0  0  0  0  0  0  0
   42.8409  -29.9849 -101.6567 O   0  0  0  0  0  0  0  0  0  0  0  0
   44.5095  -31.5762 -102.3046 C   0  0  1  0  0  0  0  0  0  0  0  0
   43.3191  -32.3307 -102.6130 O   0  0  0  0  0  0  0  0  0  0  0  0
   45.5080  -31.6526 -103.4984 C   0  0  2  0  0  0  0  0  0  0  0  0
   49.3645  -27.5973 -106.1277 O   0  0  0  0  0  0  0  0  0  0  0  0
   49.4846  -30.6077 -100.1379 N   0  0  0  0  0  0  0  0  0  0  0  0
   48.1683  -30.3266  -99.9755 C   0  0  0  0  0  0  0  0  0  0  0  0
   47.2471  -30.6857 -100.8939 N   0  0  0  0  0  0  0  0  0  0  0  0
   47.6198  -31.2599 -102.0493 C   0  0  0  0  0  0  0  0  0  0  0  0
   49.0161  -31.5403 -102.2823 C   0  0  0  0  0  0  0  0  0  0  0  0
   49.9501  -31.1942 -101.2610 C   0  0  0  0  0  0  0  0  0  0  0  0
   51.2989  -31.4432 -101.4140 N   0  0  0  0  0  0  0  0  0  0  0  0
   49.1134  -32.1004 -103.4938 N   0  0  0  0  0  0  0  0  0  0  0  0
   47.9270  -32.1792 -104.0189 C   0  0  0  0  0  0  0  0  0  0  0  0
   46.9635  -31.6833 -103.1718 N   0  0  0  0  0  0  0  0  0  0  0  0
  2  1  1  1  0  0  0
  2  3  1  0  0  0  0
  2  5  1  0  0  0  0
  3  4  1  0  0  0  0
  3 17  1  0  0  0  0
  5  6  1  0  0  0  0
  7  6  1  1  0  0  0
  7  8  1  0  0  0  0
  7  9  1  0  0  0  0
 10  9  1  1  0  0  0
 10 11  1  0  0  0  0
 10 12  1  0  0  0  0
 11 16  1  0  0  0  0
 12 13  1  6  0  0  0
 12 14  1  0  0  0  0
 14 15  1  6  0  0  0
 14 16  1  0  0  0  0
 16 27  1  1  0  0  0
 18 19  2  0  0  0  0
 18 23  1  0  0  0  0
 19 20  1  0  0  0  0
 20 21  2  0  0  0  0
 21 22  1  0  0  0  0
 21 27  1  0  0  0  0
 22 23  2  0  0  0  0
 22 25  1  0  0  0  0
 23 24  1  0  0  0  0
 25 26  2  0  0  0  0
 26 27  1  0  0  0  0
M  END
>  <CHROM.1>
24.15572816,38.15745791,114.71048632,-133.14094782,-125.58247756,26.31468947
91.02225767,47.18791366,-29.44437324,-103.17177226,0.87412088,-0.10010270
-0.55964102

>  <Name>
ligand

>  <RI>
0

>  <Rbt.Current_Directory>
/home/itssahil/PROJECTS/Mol_Feturizer/New_Systems/rnas/4L81

>  <Rbt.Executable>
rbdock ($Id: //depot/dev/client3/rdock/2013.1/src/exe/rbdock.cxx#4 $)

>  <Rbt.Library>
libRbt.so (2013.1, Build901 2013/11/27)

>  <Rbt.Parameter_File>
/export/apps/rDock/src/rDock_2013.1_src/data/scripts/dock_solv.prm

>  <Rbt.Receptor>
prm/pocket_docking_2.prm

>  <SCORE>
-4.18546

>  <SCORE.INTER>
-11.2353

>  <SCORE.INTER.CONST>
1

>  <SCORE.INTER.POLAR>
0

>  <SCORE.INTER.ROT>
7

>  <SCORE.INTER.SOLV>
14.5918

>  <SCORE.INTER.VDW>
-20.6208

>  <SCORE.INTER.norm>
-0.416122

>  <SCORE.INTRA>
5.35009

>  <SCORE.INTRA.DIHEDRAL>
13.5232

>  <SCORE.INTRA.DIHEDRAL.0>
8.34559

>  <SCORE.INTRA.POLAR>
0

>  <SCORE.INTRA.POLAR.0>
0

>  <SCORE.INTRA.REPUL>
0

>  <SCORE.INTRA.REPUL.0>
0

>  <SCORE.INTRA.SOLV>
-0.00296962

>  <SCORE.INTRA.SOLV.lig_0>
-48.829

>  <SCORE.INTRA.VDW>
-1.41002

>  <SCORE.INTRA.VDW.0>
-1.77092

>  <SCORE.INTRA.norm>
0.198152

>  <SCORE.RESTR>
1.69975

>  <SCORE.RESTR.CAVITY>
1.69975

>  <SCORE.RESTR.norm>
0.0629535

>  <SCORE.SYSTEM>
0

>  <SCORE.SYSTEM.CONST>
0

>  <SCORE.SYSTEM.DIHEDRAL>
0

>  <SCORE.SYSTEM.SOLV>
0

>  <SCORE.SYSTEM.norm>
0

>  <SCORE.heavy>
27

>  <SCORE.norm>
-0.155017

>  <RMSD>
5.203

$$$$
ligand
 OpenBabel11021811503D
libRbt.so/2013.1/901 2013/11/27
 27 29  0  0  0  0  0  0  0  0999 V2000
   49.9908  -25.3636 -103.9007 N   0  0  0  0  0  0  0  0  0  0  0  0
   50.0212  -26.5733 -103.0710 C   0  0  2  0  0  0  0  0  0  0  0  0
   50.3253  -27.7749 -103.9407 C   0  0  0  0  0  0  0  0  0  0  0  0
   50.4933  -28.8737 -103.4336 O   0  0  0  0  0  0  0  0  0  0  0  0
   48.6780  -26.8000 -102.3640 C   0  0  0  0  0  0  0  0  0  0  0  0
   47.5418  -26.8815 -103.3736 C   0  0  0  0  0  0  0  0  0  0  0  0
   47.1556  -28.5970 -103.8945 S   0  0  2  0  0  0  0  0  0  0  0  0
   47.5521  -28.6158 -105.6727 C   0  0  0  0  0  0  0  0  0  0  0  0
   45.3841  -28.3548 -104.0030 C   0  0  0  0  0  0  0  0  0  0  0  0
   44.5857  -29.3641 -103.2215 C   0  0  1  0  0  0  0  0  0  0  0  0
   44.9086  -30.6702 -103.7282 O   0  0  0  0  0  0  0  0  0  0  0  0
   45.1824  -29.2775 -101.8746 C   0  0  1  0  0  0  0  0  0  0  0  0
   44.3851  -28.4280 -101.0511 O   0  0  0  0  0  0  0  0  0  0  0  0
   45.0917  -30.6913 -101.3897 C   0  0  1  0  0  0  0  0  0  0  0  0
   43.8144  -30.9253 -100.7611 O   0  0  0  0  0  0  0  0  0  0  0  0
   45.2309  -31.5901 -102.6549 C   0  0  2  0  0  0  0  0  0  0  0  0
   50.3721  -27.6627 -105.1532 O   0  0  0  0  0  0  0  0  0  0  0  0
   50.4596  -31.6709 -101.7321 N   0  0  0  0  0  0  0  0  0  0  0  0
   49.5243  -30.8981 -101.1272 C   0  0  0  0  0  0  0  0  0  0  0  0
   48.2129  -31.0056 -101.4266 N   0  0  0  0  0  0  0  0  0  0  0  0
   47.7991  -31.8268 -102.4053 C   0  0  0  0  0  0  0  0  0  0  0  0
   48.7660  -32.6384 -103.1044 C   0  0  0  0  0  0  0  0  0  0  0  0
   50.1354  -32.5339 -102.7180 C   0  0  0  0  0  0  0  0  0  0  0  0
   51.1108  -33.2882 -103.3379 N   0  0  0  0  0  0  0  0  0  0  0  0
   48.1002  -33.3511 -104.0208 N   0  0  0  0  0  0  0  0  0  0  0  0
   46.8377  -33.0492 -103.9545 C   0  0  0  0  0  0  0  0  0  0  0  0
   46.5893  -32.1198 -102.9716 N   0  0  0  0  0  0  0  0  0  0  0  0
  2  1  1  6  0  0  0
  2  3  1  0  0  0  0
  2  5  1  0  0  0  0
  3  4  1  0  0  0  0
  3 17  1  0  0  0  0
  5  6  1  0  0  0  0
  7  6  1  1  0  0  0
  7  8  1  0  0  0  0
  7  9  1  0  0  0  0
 10  9  1  6  0  0  0
 10 11  1  0  0  0  0
 10 12  1  0  0  0  0
 11 16  1  0  0  0  0
 12 13  1  1  0  0  0
 12 14  1  0  0  0  0
 14 15  1  6  0  0  0
 14 16  1  0  0  0  0
 16 27  1  6  0  0  0
 18 19  2  0  0  0  0
 18 23  1  0  0  0  0
 19 20  1  0  0  0  0
 20 21  2  0  0  0  0
 21 22  1  0  0  0  0
 21 27  1  0  0  0  0
 22 23  2  0  0  0  0
 22 25  1  0  0  0  0
 23 24  1  0  0  0  0
 25 26  2  0  0  0  0
 26 27  1  0  0  0  0
M  END
>  <CHROM.1>
174.65431145,56.85581412,93.40306616,-115.95837718,-127.25424875,-59.12748636
105.20459485,47.64823850,-29.83311576,-103.02927906,0.73874579,0.19864190
-0.16408947

>  <Name>
ligand

>  <RI>
0

>  <Rbt.Current_Directory>
/home/itssahil/PROJECTS/Mol_Feturizer/New_Systems/rnas/4L81

>  <Rbt.Executable>
rbdock ($Id: //depot/dev/client3/rdock/2013.1/src/exe/rbdock.cxx#4 $)

>  <Rbt.Library>
libRbt.so (2013.1, Build901 2013/11/27)

>  <Rbt.Parameter_File>
/export/apps/rDock/src/rDock_2013.1_src/data/scripts/dock_solv.prm

>  <Rbt.Receptor>
prm/pocket_docking_3.prm

>  <SCORE>
-8.67934

>  <SCORE.INTER>
-9.64122

>  <SCORE.INTER.CONST>
1

>  <SCORE.INTER.POLAR>
0

>  <SCORE.INTER.ROT>
7

>  <SCORE.INTER.SOLV>
13.0248

>  <SCORE.INTER.VDW>
-19.0357

>  <SCORE.INTER.norm>
-0.357082

>  <SCORE.INTRA>
0.948802

>  <SCORE.INTRA.DIHEDRAL>
6.32353

>  <SCORE.INTRA.DIHEDRAL.0>
8.34559

>  <SCORE.INTRA.POLAR>
0

>  <SCORE.INTRA.POLAR.0>
0

>  <SCORE.INTRA.REPUL>
0

>  <SCORE.INTRA.REPUL.0>
0

>  <SCORE.INTRA.SOLV>
0.334442

>  <SCORE.INTRA.SOLV.lig_0>
-48.829

>  <SCORE.INTRA.VDW>
-2.38018

>  <SCORE.INTRA.VDW.0>
-1.77092

>  <SCORE.INTRA.norm>
0.0351408

>  <SCORE.RESTR>
0.0130793

>  <SCORE.RESTR.CAVITY>
0.0130793

>  <SCORE.RESTR.norm>
0.000484418

>  <SCORE.SYSTEM>
0

>  <SCORE.SYSTEM.CONST>
0

>  <SCORE.SYSTEM.DIHEDRAL>
0

>  <SCORE.SYSTEM.SOLV>
0

>  <SCORE.SYSTEM.norm>
0

>  <SCORE.heavy>
27

>  <SCORE.norm>
-0.321457

>  <RMSD>
5.208

$$$$
ligand
 OpenBabel11021811503D
libRbt.so/2013.1/901 2013/11/27
 27 29  0  0  0  0  0  0  0  0999 V2000
   43.9889  -31.4281 -101.9098 N   0  0  0  0  0  0  0  0  0  0  0  0
   45.1182  -30.5057 -102.0728 C   0  0  2  0  0  0  0  0  0  0  0  0
   45.9805  -30.5379 -100.8286 C   0  0  0  0  0  0  0  0  0  0  0  0
   47.1828  -30.7354 -100.9191 O   0  0  0  0  0  0  0  0  0  0  0  0
   44.6362  -29.0673 -102.3051 C   0  0  0  0  0  0  0  0  0  0  0  0
   45.7673  -28.1957 -102.8320 C   0  0  0  0  0  0  0  0  0  0  0  0
   45.2145  -26.5269 -103.3544 S   0  0  2  0  0  0  0  0  0  0  0  0
   44.1438  -26.8493 -104.7928 C   0  0  0  0  0  0  0  0  0  0  0  0
   46.7256  -26.1016 -104.2173 C   0  0  0  0  0  0  0  0  0  0  0  0
   47.8334  -25.6406 -103.3079 C   0  0  1  0  0  0  0  0  0  0  0  0
   48.2664  -26.7708 -102.5319 O   0  0  0  0  0  0  0  0  0  0  0  0
   48.9251  -25.3381 -104.2536 C   0  0  1  0  0  0  0  0  0  0  0  0
   48.9483  -23.9380 -104.5266 O   0  0  0  0  0  0  0  0  0  0  0  0
   50.1437  -25.7275 -103.4754 C   0  0  1  0  0  0  0  0  0  0  0  0
   50.5970  -24.6222 -102.6665 O   0  0  0  0  0  0  0  0  0  0  0  0
   49.7093  -26.9103 -102.5587 C   0  0  2  0  0  0  0  0  0  0  0  0
   45.4891  -30.3346  -99.7322 O   0  0  0  0  0  0  0  0  0  0  0  0
   48.3231  -31.0427 -105.5917 N   0  0  0  0  0  0  0  0  0  0  0  0
   47.6581  -29.8719 -105.4341 C   0  0  0  0  0  0  0  0  0  0  0  0
   48.1433  -28.8786 -104.6602 N   0  0  0  0  0  0  0  0  0  0  0  0
   49.2665  -29.0539 -103.9453 C   0  0  0  0  0  0  0  0  0  0  0  0
   49.9854  -30.3008 -104.0509 C   0  0  0  0  0  0  0  0  0  0  0  0
   49.4666  -31.3033 -104.9234 C   0  0  0  0  0  0  0  0  0  0  0  0
   50.1088  -32.5148 -105.0792 N   0  0  0  0  0  0  0  0  0  0  0  0
   51.0493  -30.2171 -103.2435 N   0  0  0  0  0  0  0  0  0  0  0  0
   51.0435  -29.0574 -102.6565 C   0  0  0  0  0  0  0  0  0  0  0  0
   49.9721  -28.2926 -103.0550 N   0  0  0  0  0  0  0  0  0  0  0  0
  2  1  1  1  0  0  0
  2  3  1  0  0  0  0
  2  5  1  0  0  0  0
  3  4  1  0  0  0  0
  3 17  1  0  0  0  0
  5  6  1  0  0  0  0
  7  6  1  1  0  0  0
  7  8  1  0  0  0  0
  7  9  1  0  0  0  0
 10  9  1  6  0  0  0
 10 11  1  0  0  0  0
 10 12  1  0  0  0  0
 11 16  1  0  0  0  0
 12 13  1  1  0  0  0
 12 14  1  0  0  0  0
 14 15  1  1  0  0  0
 14 16  1  0  0  0  0
 16 27  1  6  0  0  0
 18 19  2  0  0  0  0
 18 23  1  0  0  0  0
 19 20  1  0  0  0  0
 20 21  2  0  0  0  0
 21 22  1  0  0  0  0
 21 27  1  0  0  0  0
 22 23  2  0  0  0  0
 22 25  1  0  0  0  0
 23 24  1  0  0  0  0
 25 26  2  0  0  0  0
 26 27  1  0  0  0  0
M  END
>  <CHROM.1>
127.52146359,-165.03759801,171.96209386,-66.17105634,-80.19906520,68.72837361
32.70200908,47.74815792,-28.35716107,-103.26053552,2.18979551,-0.28622393
3.05155293

>  <Name>
ligand

>  <RI>
0

>  <Rbt.Current_Directory>
/home/itssahil/PROJECTS/Mol_Feturizer/New_Systems/rnas/4L81

>  <Rbt.Executable>
rbdock ($Id: //depot/dev/client3/rdock/2013.1/src/exe/rbdock.cxx#4 $)

>  <Rbt.Library>
libRbt.so (2013.1, Build901 2013/11/27)

>  <Rbt.Parameter_File>
/export/apps/rDock/src/rDock_2013.1_src/data/scripts/dock_solv.prm

>  <Rbt.Receptor>
prm/pocket_docking_6.prm

>  <SCORE>
-15.5522

>  <SCORE.INTER>
-11.0033

>  <SCORE.INTER.CONST>
1

>  <SCORE.INTER.POLAR>
0

>  <SCORE.INTER.ROT>
7

>  <SCORE.INTER.SOLV>
14.2128

>  <SCORE.INTER.VDW>
-20.3398

>  <SCORE.INTER.norm>
-0.407529

>  <SCORE.INTRA>
-4.5489

>  <SCORE.INTRA.DIHEDRAL>
-3.22258

>  <SCORE.INTRA.DIHEDRAL.0>
8.34559

>  <SCORE.INTRA.POLAR>
0

>  <SCORE.INTRA.POLAR.0>
0

>  <SCORE.INTRA.REPUL>
0

>  <SCORE.INTRA.REPUL.0>
0

>  <SCORE.INTRA.SOLV>
-1.20031

>  <SCORE.INTRA.SOLV.lig_0>
-48.829

>  <SCORE.INTRA.VDW>
-2.33745

>  <SCORE.INTRA.VDW.0>
-1.77092

>  <SCORE.INTRA.norm>
-0.168478

>  <SCORE.RESTR>
0

>  <SCORE.RESTR.CAVITY>
0

>  <SCORE.RESTR.norm>
0

>  <SCORE.SYSTEM>
0

>  <SCORE.SYSTEM.CONST>
0

>  <SCORE.SYSTEM.DIHEDRAL>
0

>  <SCORE.SYSTEM.SOLV>
0

>  <SCORE.SYSTEM.norm>
0

>  <SCORE.heavy>
27

>  <SCORE.norm>
-0.576007

>  <RMSD>
5.208

$$$$
ligand
 OpenBabel11021811503D
libRbt.so/2013.1/901 2013/11/27
 27 29  0  0  0  0  0  0  0  0999 V2000
   50.9834  -25.6214 -105.4018 N   0  0  0  0  0  0  0  0  0  0  0  0
   49.7213  -25.7311 -104.6617 C   0  0  2  0  0  0  0  0  0  0  0  0
   49.9790  -25.5038 -103.1870 C   0  0  0  0  0  0  0  0  0  0  0  0
   49.1899  -24.8533 -102.5185 O   0  0  0  0  0  0  0  0  0  0  0  0
   49.0835  -27.1148 -104.8462 C   0  0  0  0  0  0  0  0  0  0  0  0
   47.6753  -27.1431 -104.2690 C   0  0  0  0  0  0  0  0  0  0  0  0
   46.8198  -28.7455 -104.5213 S   0  0  2  0  0  0  0  0  0  0  0  0
   46.4530  -28.7713 -106.3058 C   0  0  0  0  0  0  0  0  0  0  0  0
   45.2274  -28.1940 -103.9140 C   0  0  0  0  0  0  0  0  0  0  0  0
   44.5795  -29.1551 -102.9531 C   0  0  1  0  0  0  0  0  0  0  0  0
   44.5154  -30.4416 -103.5917 O   0  0  0  0  0  0  0  0  0  0  0  0
   45.5860  -29.2693 -101.8800 C   0  0  1  0  0  0  0  0  0  0  0  0
   45.2395  -28.3995 -100.8035 O   0  0  0  0  0  0  0  0  0  0  0  0
   45.4403  -30.6965 -101.4511 C   0  0  1  0  0  0  0  0  0  0  0  0
   44.4155  -30.8154 -100.4427 O   0  0  0  0  0  0  0  0  0  0  0  0
   45.0219  -31.4886 -102.7261 C   0  0  2  0  0  0  0  0  0  0  0  0
   50.9559  -25.9946 -102.6488 O   0  0  0  0  0  0  0  0  0  0  0  0
   47.1033  -32.9720 -107.3807 N   0  0  0  0  0  0  0  0  0  0  0  0
   45.9306  -32.3263 -107.1667 C   0  0  0  0  0  0  0  0  0  0  0  0
   45.5338  -31.9670 -105.9280 N   0  0  0  0  0  0  0  0  0  0  0  0
   46.2527  -32.3191 -104.8497 C   0  0  0  0  0  0  0  0  0  0  0  0
   47.4879  -33.0436 -105.0281 C   0  0  0  0  0  0  0  0  0  0  0  0
   47.8977  -33.3548 -106.3587 C   0  0  0  0  0  0  0  0  0  0  0  0
   49.0726  -34.0369 -106.6019 N   0  0  0  0  0  0  0  0  0  0  0  0
   47.9959  -33.2712 -103.8112 N   0  0  0  0  0  0  0  0  0  0  0  0
   47.1950  -32.7694 -102.9189 C   0  0  0  0  0  0  0  0  0  0  0  0
   46.1057  -32.1624 -103.4991 N   0  0  0  0  0  0  0  0  0  0  0  0
  2  1  1  6  0  0  0
  2  3  1  0  0  0  0
  2  5  1  0  0  0  0
  3  4  1  0  0  0  0
  3 17  1  0  0  0  0
  5  6  1  0  0  0  0
  7  6  1  6  0  0  0
  7  8  1  0  0  0  0
  7  9  1  0  0  0  0
 10  9  1  6  0  0  0
 10 11  1  0  0  0  0
 10 12  1  0  0  0  0
 11 16  1  0  0  0  0
 12 13  1  1  0  0  0
 12 14  1  0  0  0  0
 14 15  1  1  0  0  0
 14 16  1  0  0  0  0
 16 27  1  6  0  0  0
 18 19  2  0  0  0  0
 18 23  1  0  0  0  0
 19 20  1  0  0  0  0
 20 21  2  0  0  0  0
 21 22  1  0  0  0  0
 21 27  1  0  0  0  0
 22 23  2  0  0  0  0
 22 25  1  0  0  0  0
 23 24  1  0  0  0  0
 25 26  2  0  0  0  0
 26 27  1  0  0  0  0
M  END
>  <CHROM.1>
139.97431489,-170.68345349,177.37334678,-71.67425878,-133.83103291,-54.17573134
-29.48824709,47.07285913,-29.71378915,-104.02679888,-1.01837390,-0.72442676
-2.56947348

>  <Name>
ligand

>  <RI>
0

>  <Rbt.Current_Directory>
/home/itssahil/PROJECTS/Mol_Feturizer/New_Systems/rnas/4L81

>  <Rbt.Executable>
rbdock ($Id: //depot/dev/client3/rdock/2013.1/src/exe/rbdock.cxx#4 $)

>  <Rbt.Library>
libRbt.so (2013.1, Build901 2013/11/27)

>  <Rbt.Parameter_File>
/export/apps/rDock/src/rDock_2013.1_src/data/scripts/dock_solv.prm

>  <Rbt.Receptor>
prm/pocket_docking_7.prm

>  <SCORE>
-11.7528

>  <SCORE.INTER>
-9.55918

>  <SCORE.INTER.CONST>
1

>  <SCORE.INTER.POLAR>
0

>  <SCORE.INTER.ROT>
7

>  <SCORE.INTER.SOLV>
12.979

>  <SCORE.INTER.VDW>
-18.9658

>  <SCORE.INTER.norm>
-0.354044

>  <SCORE.INTRA>
-2.19361

>  <SCORE.INTRA.DIHEDRAL>
-0.316088

>  <SCORE.INTRA.DIHEDRAL.0>
8.34559

>  <SCORE.INTRA.POLAR>
0

>  <SCORE.INTRA.POLAR.0>
0

>  <SCORE.INTRA.REPUL>
0

>  <SCORE.INTRA.REPUL.0>
0

>  <SCORE.INTRA.SOLV>
-0.992666

>  <SCORE.INTRA.SOLV.lig_0>
-48.829

>  <SCORE.INTRA.VDW>
-1.53923

>  <SCORE.INTRA.VDW.0>
-1.77092

>  <SCORE.INTRA.norm>
-0.0812448

>  <SCORE.RESTR>
0

>  <SCORE.RESTR.CAVITY>
0

>  <SCORE.RESTR.norm>
0

>  <SCORE.SYSTEM>
0

>  <SCORE.SYSTEM.CONST>
0

>  <SCORE.SYSTEM.DIHEDRAL>
0

>  <SCORE.SYSTEM.SOLV>
0

>  <SCORE.SYSTEM.norm>
0

>  <SCORE.heavy>
27

>  <SCORE.norm>
-0.435288

>  <RMSD>
5.211

$$$$
ligand
 OpenBabel11021811503D
libRbt.so/2013.1/901 2013/11/27
 27 29  0  0  0  0  0  0  0  0999 V2000
   45.7706  -31.5838 -105.9730 N   0  0  0  0  0  0  0  0  0  0  0  0
   45.8852  -30.2430 -105.3883 C   0  0  2  0  0  0  0  0  0  0  0  0
   46.2657  -30.3596 -103.9274 C   0  0  0  0  0  0  0  0  0  0  0  0
   46.8471  -29.4417 -103.3686 O   0  0  0  0  0  0  0  0  0  0  0  0
   44.5631  -29.4712 -105.4964 C   0  0  0  0  0  0  0  0  0  0  0  0
   44.7830  -28.1078 -106.1366 C   0  0  0  0  0  0  0  0  0  0  0  0
   45.7067  -26.9426 -105.0631 S   0  0  2  0  0  0  0  0  0  0  0  0
   45.1818  -25.2982 -105.6460 C   0  0  0  0  0  0  0  0  0  0  0  0
   47.2571  -27.0748 -105.9506 C   0  0  0  0  0  0  0  0  0  0  0  0
   48.3633  -26.2376 -105.3657 C   0  0  1  0  0  0  0  0  0  0  0  0
   48.7480  -26.8279 -104.1125 O   0  0  0  0  0  0  0  0  0  0  0  0
   49.4795  -26.4750 -106.3014 C   0  0  1  0  0  0  0  0  0  0  0  0
   49.5507  -25.4059 -107.2434 O   0  0  0  0  0  0  0  0  0  0  0  0
   50.6722  -26.4396 -105.3968 C   0  0  1  0  0  0  0  0  0  0  0  0
   51.1461  -25.0856 -105.2438 O   0  0  0  0  0  0  0  0  0  0  0  0
   50.1861  -26.9882 -104.0217 C   0  0  2  0  0  0  0  0  0  0  0  0
   45.9665  -31.3540 -103.2897 O   0  0  0  0  0  0  0  0  0  0  0  0
   49.2669  -32.0882 -105.1805 N   0  0  0  0  0  0  0  0  0  0  0  0
   48.7321  -30.9946 -105.7771 C   0  0  0  0  0  0  0  0  0  0  0  0
   49.0838  -29.7438 -105.4126 N   0  0  0  0  0  0  0  0  0  0  0  0
   49.9161  -29.5404 -104.3784 C   0  0  0  0  0  0  0  0  0  0  0  0
   50.4773  -30.6763 -103.6875 C   0  0  0  0  0  0  0  0  0  0  0  0
   50.1217  -31.9812 -104.1413 C   0  0  0  0  0  0  0  0  0  0  0  0
   50.6294  -33.1109 -103.5325 N   0  0  0  0  0  0  0  0  0  0  0  0
   51.2573  -30.2020 -102.7090 N   0  0  0  0  0  0  0  0  0  0  0  0
   51.2191  -28.9030 -102.7309 C   0  0  0  0  0  0  0  0  0  0  0  0
   50.4142  -28.4363 -103.7437 N   0  0  0  0  0  0  0  0  0  0  0  0
  2  1  1  1  0  0  0
  2  3  1  0  0  0  0
  2  5  1  0  0  0  0
  3  4  1  0  0  0  0
  3 17  1  0  0  0  0
  5  6  1  0  0  0  0
  7  6  1  6  0  0  0
  7  8  1  0  0  0  0
  7  9  1  0  0  0  0
 10  9  1  6  0  0  0
 10 11  1  0  0  0  0
 10 12  1  0  0  0  0
 11 16  1  0  0  0  0
 12 13  1  6  0  0  0
 12 14  1  0  0  0  0
 14 15  1  1  0  0  0
 14 16  1  0  0  0  0
 16 27  1  6  0  0  0
 18 19  2  0  0  0  0
 18 23  1  0  0  0  0
 19 20  1  0  0  0  0
 20 21  2  0  0  0  0
 21 22  1  0  0  0  0
 21 27  1  0  0  0  0
 22 23  2  0  0  0  0
 22 25  1  0  0  0  0
 23 24  1  0  0  0  0
 25 26  2  0  0  0  0
 26 27  1  0  0  0  0
M  END
>  <CHROM.1>
154.95252909,-127.73477552,-69.80712485,-154.72362739,-179.55049808,70.31433023
50.00532452,48.25372489,-28.69536591,-104.81206791,1.17051367,0.18450492
2.88803247

>  <Name>
ligand

>  <RI>
0

>  <Rbt.Current_Directory>
/home/itssahil/PROJECTS/Mol_Feturizer/New_Systems/rnas/4L81

>  <Rbt.Executable>
rbdock ($Id: //depot/dev/client3/rdock/2013.1/src/exe/rbdock.cxx#4 $)

>  <Rbt.Library>
libRbt.so (2013.1, Build901 2013/11/27)

>  <Rbt.Parameter_File>
/export/apps/rDock/src/rDock_2013.1_src/data/scripts/dock_solv.prm

>  <Rbt.Receptor>
prm/pocket_docking_4.prm

>  <SCORE>
-7.54223

>  <SCORE.INTER>
-5.04475

>  <SCORE.INTER.CONST>
1

>  <SCORE.INTER.POLAR>
0

>  <SCORE.INTER.ROT>
7

>  <SCORE.INTER.SOLV>
12.683

>  <SCORE.INTER.VDW>
-15.8575

>  <SCORE.INTER.norm>
-0.186843

>  <SCORE.INTRA>
-2.49748

>  <SCORE.INTRA.DIHEDRAL>
4.04239

>  <SCORE.INTRA.DIHEDRAL.0>
8.34559

>  <SCORE.INTRA.POLAR>
0

>  <SCORE.INTRA.POLAR.0>
0

>  <SCORE.INTRA.REPUL>
0

>  <SCORE.INTRA.REPUL.0>
0

>  <SCORE.INTRA.SOLV>
-0.02205

>  <SCORE.INTRA.SOLV.lig_0>
-48.829

>  <SCORE.INTRA.VDW>
-4.50765

>  <SCORE.INTRA.VDW.0>
-1.77092

>  <SCORE.INTRA.norm>
-0.0924992

>  <SCORE.RESTR>
0

>  <SCORE.RESTR.CAVITY>
0

>  <SCORE.RESTR.norm>
0

>  <SCORE.SYSTEM>
0

>  <SCORE.SYSTEM.CONST>
0

>  <SCORE.SYSTEM.DIHEDRAL>
0

>  <SCORE.SYSTEM.SOLV>
0

>  <SCORE.SYSTEM.norm>
0

>  <SCORE.heavy>
27

>  <SCORE.norm>
-0.279342

>  <RMSD>
5.217

$$$$
ligand
 OpenBabel11021811503D
libRbt.so/2013.1/901 2013/11/27
 27 29  0  0  0  0  0  0  0  0999 V2000
   49.4838  -25.0755 -103.3192 N   0  0  0  0  0  0  0  0  0  0  0  0
   49.1000  -26.1488 -104.2430 C   0  0  2  0  0  0  0  0  0  0  0  0
   49.8494  -25.9840 -105.5483 C   0  0  0  0  0  0  0  0  0  0  0  0
   49.9201  -24.8873 -106.0820 O   0  0  0  0  0  0  0  0  0  0  0  0
   47.5926  -26.1266 -104.5303 C   0  0  0  0  0  0  0  0  0  0  0  0
   47.2048  -27.2558 -105.4745 C   0  0  0  0  0  0  0  0  0  0  0  0
   45.4643  -27.7997 -105.2788 S   0  0  2  0  0  0  0  0  0  0  0  0
   44.5228  -26.2416 -105.2065 C   0  0  0  0  0  0  0  0  0  0  0  0
   45.5812  -28.1403 -103.5241 C   0  0  0  0  0  0  0  0  0  0  0  0
   44.6535  -29.2295 -103.0552 C   0  0  1  0  0  0  0  0  0  0  0  0
   44.9975  -30.4353 -103.7587 O   0  0  0  0  0  0  0  0  0  0  0  0
   45.0690  -29.4288 -101.6534 C   0  0  1  0  0  0  0  0  0  0  0  0
   44.1981  -28.7026 -100.7876 O   0  0  0  0  0  0  0  0  0  0  0  0
   44.8685  -30.9004 -101.4631 C   0  0  1  0  0  0  0  0  0  0  0  0
   43.5122  -31.1734 -101.0540 O   0  0  0  0  0  0  0  0  0  0  0  0
   45.1443  -31.5553 -102.8499 C   0  0  2  0  0  0  0  0  0  0  0  0
   50.4150  -26.9349 -106.0591 O   0  0  0  0  0  0  0  0  0  0  0  0
   50.3079  -31.6954 -101.6188 N   0  0  0  0  0  0  0  0  0  0  0  0
   49.3450  -30.9208 -101.0615 C   0  0  0  0  0  0  0  0  0  0  0  0
   48.0529  -31.0126 -101.4396 N   0  0  0  0  0  0  0  0  0  0  0  0
   47.6910  -31.8188 -102.4508 C   0  0  0  0  0  0  0  0  0  0  0  0
   48.6908  -32.6316 -103.1007 C   0  0  0  0  0  0  0  0  0  0  0  0
   50.0355  -32.5443 -102.6323 C   0  0  0  0  0  0  0  0  0  0  0  0
   51.0396  -33.3007 -103.2019 N   0  0  0  0  0  0  0  0  0  0  0  0
   48.0745  -33.3277 -104.0633 N   0  0  0  0  0  0  0  0  0  0  0  0
   46.8130  -33.0148 -104.0686 C   0  0  0  0  0  0  0  0  0  0  0  0
   46.5146  -32.0941 -103.0914 N   0  0  0  0  0  0  0  0  0  0  0  0
  2  1  1  1  0  0  0
  2  3  1  0  0  0  0
  2  5  1  0  0  0  0
  3  4  1  0  0  0  0
  3 17  1  0  0  0  0
  5  6  1  0  0  0  0
  7  6  1  1  0  0  0
  7  8  1  0  0  0  0
  7  9  1  0  0  0  0
 10  9  1  6  0  0  0
 10 11  1  0  0  0  0
 10 12  1  0  0  0  0
 11 16  1  0  0  0  0
 12 13  1  1  0  0  0
 12 14  1  0  0  0  0
 14 15  1  6  0  0  0
 14 16  1  0  0  0  0
 16 27  1  1  0  0  0
 18 19  2  0  0  0  0
 18 23  1  0  0  0  0
 19 20  1  0  0  0  0
 20 21  2  0  0  0  0
 21 22  1  0  0  0  0
 21 27  1  0  0  0  0
 22 23  2  0  0  0  0
 22 25  1  0  0  0  0
 23 24  1  0  0  0  0
 25 26  2  0  0  0  0
 26 27  1  0  0  0  0
M  END
>  <CHROM.1>
-46.13303204,-179.23731556,153.34665114,45.68107742,-150.48046992,60.59794228
94.01251027,47.20274552,-29.40242011,-103.47045045,-1.38910873,-0.19590533
2.73431695

>  <Name>
ligand

>  <RI>
0

>  <Rbt.Current_Directory>
/home/itssahil/PROJECTS/Mol_Feturizer/New_Systems/rnas/4L81

>  <Rbt.Executable>
rbdock ($Id: //depot/dev/client3/rdock/2013.1/src/exe/rbdock.cxx#4 $)

>  <Rbt.Library>
libRbt.so (2013.1, Build901 2013/11/27)

>  <Rbt.Parameter_File>
/export/apps/rDock/src/rDock_2013.1_src/data/scripts/dock_solv.prm

>  <Rbt.Receptor>
prm/pocket_docking_3.prm

>  <SCORE>
-11.7483

>  <SCORE.INTER>
-11.8167

>  <SCORE.INTER.CONST>
1

>  <SCORE.INTER.POLAR>
0

>  <SCORE.INTER.ROT>
7

>  <SCORE.INTER.SOLV>
13.4186

>  <SCORE.INTER.VDW>
-20.6173

>  <SCORE.INTER.norm>
-0.437654

>  <SCORE.INTRA>
0.0559566

>  <SCORE.INTRA.DIHEDRAL>
0.317143

>  <SCORE.INTRA.DIHEDRAL.0>
8.34559

>  <SCORE.INTRA.POLAR>
0

>  <SCORE.INTRA.POLAR.0>
0

>  <SCORE.INTRA.REPUL>
0

>  <SCORE.INTRA.REPUL.0>
0

>  <SCORE.INTRA.SOLV>
-1.31043

>  <SCORE.INTRA.SOLV.lig_0>
-48.829

>  <SCORE.INTRA.VDW>
0.552601

>  <SCORE.INTRA.VDW.0>
-1.77092

>  <SCORE.INTRA.norm>
0.00207247

>  <SCORE.RESTR>
0.0123636

>  <SCORE.RESTR.CAVITY>
0.0123636

>  <SCORE.RESTR.norm>
0.000457913

>  <SCORE.SYSTEM>
0

>  <SCORE.SYSTEM.CONST>
0

>  <SCORE.SYSTEM.DIHEDRAL>
0

>  <SCORE.SYSTEM.SOLV>
0

>  <SCORE.SYSTEM.norm>
0

>  <SCORE.heavy>
27

>  <SCORE.norm>
-0.435124

>  <RMSD>
5.221

$$$$
ligand
 OpenBabel11021811503D
libRbt.so/2013.1/901 2013/11/27
 27 29  0  0  0  0  0  0  0  0999 V2000
   48.5806  -23.6942 -104.1648 N   0  0  0  0  0  0  0  0  0  0  0  0
   48.0524  -24.5454 -103.0928 C   0  0  2  0  0  0  0  0  0  0  0  0
   49.1033  -25.5573 -102.6870 C   0  0  0  0  0  0  0  0  0  0  0  0
   48.7776  -26.5830 -102.1086 O   0  0  0  0  0  0  0  0  0  0  0  0
   46.7910  -25.2943 -103.5440 C   0  0  0  0  0  0  0  0  0  0  0  0
   47.1168  -26.2839 -104.6536 C   0  0  0  0  0  0  0  0  0  0  0  0
   45.7900  -27.5175 -104.9383 S   0  0  2  0  0  0  0  0  0  0  0  0
   44.2711  -26.5154 -105.0304 C   0  0  0  0  0  0  0  0  0  0  0  0
   45.6736  -28.0498 -103.2318 C   0  0  0  0  0  0  0  0  0  0  0  0
   44.6913  -29.1694 -103.0121 C   0  0  1  0  0  0  0  0  0  0  0  0
   45.0974  -30.2797 -103.8303 O   0  0  0  0  0  0  0  0  0  0  0  0
   44.9531  -29.5612 -101.6136 C   0  0  1  0  0  0  0  0  0  0  0  0
   44.0014  -28.9354 -100.7545 O   0  0  0  0  0  0  0  0  0  0  0  0
   44.7200  -31.0400 -101.6435 C   0  0  1  0  0  0  0  0  0  0  0  0
   43.3254  -31.3329 -101.4185 O   0  0  0  0  0  0  0  0  0  0  0  0
   45.1363  -31.5128 -103.0687 C   0  0  2  0  0  0  0  0  0  0  0  0
   50.2758  -25.3730 -102.9627 O   0  0  0  0  0  0  0  0  0  0  0  0
   50.2137  -31.6777 -101.5225 N   0  0  0  0  0  0  0  0  0  0  0  0
   49.2171  -30.9143 -101.0107 C   0  0  0  0  0  0  0  0  0  0  0  0
   47.9511  -30.9985 -101.4701 N   0  0  0  0  0  0  0  0  0  0  0  0
   47.6536  -31.7843 -102.5177 C   0  0  0  0  0  0  0  0  0  0  0  0
   48.6927  -32.5840 -103.1203 C   0  0  0  0  0  0  0  0  0  0  0  0
   50.0057  -32.5061 -102.5678 C   0  0  0  0  0  0  0  0  0  0  0  0
   51.0441  -33.2510 -103.0890 N   0  0  0  0  0  0  0  0  0  0  0  0
   48.1383  -33.2606 -104.1330 N   0  0  0  0  0  0  0  0  0  0  0  0
   46.8791  -32.9477 -104.2105 C   0  0  0  0  0  0  0  0  0  0  0  0
   46.5195  -32.0467 -103.2354 N   0  0  0  0  0  0  0  0  0  0  0  0
  2  1  1  6  0  0  0
  2  3  1  0  0  0  0
  2  5  1  0  0  0  0
  3  4  1  0  0  0  0
  3 17  1  0  0  0  0
  5  6  1  0  0  0  0
  7  6  1  1  0  0  0
  7  8  1  0  0  0  0
  7  9  1  0  0  0  0
 10  9  1  6  0  0  0
 10 11  1  0  0  0  0
 10 12  1  0  0  0  0
 11 16  1  0  0  0  0
 12 13  1  1  0  0  0
 12 14  1  0  0  0  0
 14 15  1  6  0  0  0
 14 16  1  0  0  0  0
 16 27  1  1  0  0  0
 18 19  2  0  0  0  0
 18 23  1  0  0  0  0
 19 20  1  0  0  0  0
 20 21  2  0  0  0  0
 21 22  1  0  0  0  0
 21 27  1  0  0  0  0
 22 23  2  0  0  0  0
 22 25  1  0  0  0  0
 23 24  1  0  0  0  0
 25 26  2  0  0  0  0
 26 27  1  0  0  0  0
M  END
>  <CHROM.1>
-159.08498359,65.42606869,164.65601020,48.16479690,-177.04789431,58.55306219
86.98789085,47.02056995,-29.21338288,-103.00626082,-1.60578467,0.03887303
2.98751069

>  <Name>
ligand

>  <RI>
0

>  <Rbt.Current_Directory>
/home/itssahil/PROJECTS/Mol_Feturizer/New_Systems/rnas/4L81

>  <Rbt.Executable>
rbdock ($Id: //depot/dev/client3/rdock/2013.1/src/exe/rbdock.cxx#4 $)

>  <Rbt.Library>
libRbt.so (2013.1, Build901 2013/11/27)

>  <Rbt.Parameter_File>
/export/apps/rDock/src/rDock_2013.1_src/data/scripts/dock_solv.prm

>  <Rbt.Receptor>
prm/pocket_docking_4.prm

>  <SCORE>
-15.1286

>  <SCORE.INTER>
-14.3885

>  <SCORE.INTER.CONST>
1

>  <SCORE.INTER.POLAR>
0

>  <SCORE.INTER.ROT>
7

>  <SCORE.INTER.SOLV>
12.4032

>  <SCORE.INTER.VDW>
-21.9934

>  <SCORE.INTER.norm>
-0.532907

>  <SCORE.INTRA>
-0.740141

>  <SCORE.INTRA.DIHEDRAL>
-3.7272

>  <SCORE.INTRA.DIHEDRAL.0>
8.34559

>  <SCORE.INTRA.POLAR>
0

>  <SCORE.INTRA.POLAR.0>
0

>  <SCORE.INTRA.REPUL>
0

>  <SCORE.INTRA.REPUL.0>
0

>  <SCORE.INTRA.SOLV>
-0.644395

>  <SCORE.INTRA.SOLV.lig_0>
-48.829

>  <SCORE.INTRA.VDW>
1.44566

>  <SCORE.INTRA.VDW.0>
-1.77092

>  <SCORE.INTRA.norm>
-0.0274126

>  <SCORE.RESTR>
0

>  <SCORE.RESTR.CAVITY>
0

>  <SCORE.RESTR.norm>
0

>  <SCORE.SYSTEM>
0

>  <SCORE.SYSTEM.CONST>
0

>  <SCORE.SYSTEM.DIHEDRAL>
0

>  <SCORE.SYSTEM.SOLV>
0

>  <SCORE.SYSTEM.norm>
0

>  <SCORE.heavy>
27

>  <SCORE.norm>
-0.56032

>  <RMSD>
5.224

$$$$
ligand
 OpenBabel11021811503D
libRbt.so/2013.1/901 2013/11/27
 27 29  0  0  0  0  0  0  0  0999 V2000
   48.8534  -24.8621 -103.2185 N   0  0  0  0  0  0  0  0  0  0  0  0
   49.5164  -26.1700 -103.1681 C   0  0  2  0  0  0  0  0  0  0  0  0
   49.6683  -26.7140 -104.5730 C   0  0  0  0  0  0  0  0  0  0  0  0
   49.1306  -26.1477 -105.5127 O   0  0  0  0  0  0  0  0  0  0  0  0
   48.7103  -27.1735 -102.3322 C   0  0  0  0  0  0  0  0  0  0  0  0
   49.5235  -28.4323 -102.0653 C   0  0  0  0  0  0  0  0  0  0  0  0
   48.8538  -29.4519 -100.6959 S   0  0  2  0  0  0  0  0  0  0  0  0
   50.0363  -30.8310 -100.5565 C   0  0  0  0  0  0  0  0  0  0  0  0
   47.5920  -30.2603 -101.6772 C   0  0  0  0  0  0  0  0  0  0  0  0
   46.1874  -29.8835 -101.2875 C   0  0  1  0  0  0  0  0  0  0  0  0
   46.0639  -28.4562 -101.4081 O   0  0  0  0  0  0  0  0  0  0  0  0
   45.3806  -30.4678 -102.3763 C   0  0  1  0  0  0  0  0  0  0  0  0
   44.8567  -31.7281 -101.9611 O   0  0  0  0  0  0  0  0  0  0  0  0
   44.2690  -29.4753 -102.5229 C   0  0  1  0  0  0  0  0  0  0  0  0
   43.1925  -29.7898 -101.6154 O   0  0  0  0  0  0  0  0  0  0  0  0
   44.8793  -28.0885 -102.1588 C   0  0  2  0  0  0  0  0  0  0  0  0
   50.3537  -27.6996 -104.7820 O   0  0  0  0  0  0  0  0  0  0  0  0
   46.4572  -27.6102 -107.2065 N   0  0  0  0  0  0  0  0  0  0  0  0
   46.1052  -28.7449 -106.5534 C   0  0  0  0  0  0  0  0  0  0  0  0
   45.6794  -28.7240 -105.2731 N   0  0  0  0  0  0  0  0  0  0  0  0
   45.6749  -27.5789 -104.5716 C   0  0  0  0  0  0  0  0  0  0  0  0
   46.0811  -26.3529 -105.2152 C   0  0  0  0  0  0  0  0  0  0  0  0
   46.4712  -26.4114 -106.5862 C   0  0  0  0  0  0  0  0  0  0  0  0
   46.8616  -25.2754 -107.2657 N   0  0  0  0  0  0  0  0  0  0  0  0
   45.9905  -25.3760 -104.3051 N   0  0  0  0  0  0  0  0  0  0  0  0
   45.5819  -25.8834 -103.1804 C   0  0  0  0  0  0  0  0  0  0  0  0
   45.3630  -27.2373 -103.2847 N   0  0  0  0  0  0  0  0  0  0  0  0
  2  1  1  6  0  0  0
  2  3  1  0  0  0  0
  2  5  1  0  0  0  0
  3  4  1  0  0  0  0
  3 17  1  0  0  0  0
  5  6  1  0  0  0  0
  7  6  1  6  0  0  0
  7  8  1  0  0  0  0
  7  9  1  0  0  0  0
 10  9  1  6  0  0  0
 10 11  1  0  0  0  0
 10 12  1  0  0  0  0
 11 16  1  0  0  0  0
 12 13  1  1  0  0  0
 12 14  1  0  0  0  0
 14 15  1  1  0  0  0
 14 16  1  0  0  0  0
 16 27  1  6  0  0  0
 18 19  2  0  0  0  0
 18 23  1  0  0  0  0
 19 20  1  0  0  0  0
 20 21  2  0  0  0  0
 21 22  1  0  0  0  0
 21 27  1  0  0  0  0
 22 23  2  0  0  0  0
 22 25  1  0  0  0  0
 23 24  1  0  0  0  0
 25 26  2  0  0  0  0
 26 27  1  0  0  0  0
M  END
>  <CHROM.1>
-8.28475540,-169.22189815,163.09481433,-177.88199695,-112.93245572,57.73825596
94.97354039,47.05145256,-28.07403054,-103.34728696,-1.40117005,0.25939361
2.25925448

>  <Name>
ligand

>  <RI>
0

>  <Rbt.Current_Directory>
/home/itssahil/PROJECTS/Mol_Feturizer/New_Systems/rnas/4L81

>  <Rbt.Executable>
rbdock ($Id: //depot/dev/client3/rdock/2013.1/src/exe/rbdock.cxx#4 $)

>  <Rbt.Library>
libRbt.so (2013.1, Build901 2013/11/27)

>  <Rbt.Parameter_File>
/export/apps/rDock/src/rDock_2013.1_src/data/scripts/dock_solv.prm

>  <Rbt.Receptor>
prm/pocket_docking_3.prm

>  <SCORE>
-11.436

>  <SCORE.INTER>
-8.75984

>  <SCORE.INTER.CONST>
1

>  <SCORE.INTER.POLAR>
0

>  <SCORE.INTER.ROT>
7

>  <SCORE.INTER.SOLV>
10.1131

>  <SCORE.INTER.VDW>
-17.4776

>  <SCORE.INTER.norm>
-0.324439

>  <SCORE.INTRA>
-2.94832

>  <SCORE.INTRA.DIHEDRAL>
0.639368

>  <SCORE.INTRA.DIHEDRAL.0>
8.34559

>  <SCORE.INTRA.POLAR>
0

>  <SCORE.INTRA.POLAR.0>
0

>  <SCORE.INTRA.REPUL>
0

>  <SCORE.INTRA.REPUL.0>
0

>  <SCORE.INTRA.SOLV>
0.823152

>  <SCORE.INTRA.SOLV.lig_0>
-48.829

>  <SCORE.INTRA.VDW>
-3.67958

>  <SCORE.INTRA.VDW.0>
-1.77092

>  <SCORE.INTRA.norm>
-0.109197

>  <SCORE.RESTR>
0.272188

>  <SCORE.RESTR.CAVITY>
0.272188

>  <SCORE.RESTR.norm>
0.010081

>  <SCORE.SYSTEM>
0

>  <SCORE.SYSTEM.CONST>
0

>  <SCORE.SYSTEM.DIHEDRAL>
0

>  <SCORE.SYSTEM.SOLV>
0

>  <SCORE.SYSTEM.norm>
0

>  <SCORE.heavy>
27

>  <SCORE.norm>
-0.423555

>  <RMSD>
5.226

$$$$
ligand
 OpenBabel11021811503D
libRbt.so/2013.1/901 2013/11/27
 27 29  0  0  0  0  0  0  0  0999 V2000
   48.4938  -22.7013 -104.2635 N   0  0  0  0  0  0  0  0  0  0  0  0
   49.6853  -23.4685 -103.8834 C   0  0  2  0  0  0  0  0  0  0  0  0
   50.2936  -24.1014 -105.1171 C   0  0  0  0  0  0  0  0  0  0  0  0
   49.5767  -24.4740 -106.0336 O   0  0  0  0  0  0  0  0  0  0  0  0
   49.3401  -24.5750 -102.8774 C   0  0  0  0  0  0  0  0  0  0  0  0
   48.3107  -25.5336 -103.4591 C   0  0  0  0  0  0  0  0  0  0  0  0
   47.8330  -26.8744 -102.3026 S   0  0  2  0  0  0  0  0  0  0  0  0
   49.3464  -27.8762 -102.1424 C   0  0  0  0  0  0  0  0  0  0  0  0
   46.9692  -27.8615 -103.5227 C   0  0  0  0  0  0  0  0  0  0  0  0
   45.8712  -28.7143 -102.9449 C   0  0  1  0  0  0  0  0  0  0  0  0
   45.3514  -29.5397 -104.0011 O   0  0  0  0  0  0  0  0  0  0  0  0
   46.6043  -29.6131 -102.0324 C   0  0  1  0  0  0  0  0  0  0  0  0
   46.5286  -29.1087 -100.7000 O   0  0  0  0  0  0  0  0  0  0  0  0
   45.8268  -30.8881 -102.1414 C   0  0  1  0  0  0  0  0  0  0  0  0
   44.7351  -30.8924 -101.1981 O   0  0  0  0  0  0  0  0  0  0  0  0
   45.2690  -30.9293 -103.5957 C   0  0  2  0  0  0  0  0  0  0  0  0
   51.5026  -24.2139 -105.2202 O   0  0  0  0  0  0  0  0  0  0  0  0
   49.5229  -33.8434 -104.8646 N   0  0  0  0  0  0  0  0  0  0  0  0
   49.2348  -33.2774 -103.6669 C   0  0  0  0  0  0  0  0  0  0  0  0
   48.0910  -32.5910 -103.4629 N   0  0  0  0  0  0  0  0  0  0  0  0
   47.2354  -32.3700 -104.4741 C   0  0  0  0  0  0  0  0  0  0  0  0
   47.5225  -32.9195 -105.7772 C   0  0  0  0  0  0  0  0  0  0  0  0
   48.7157  -33.6856 -105.9350 C   0  0  0  0  0  0  0  0  0  0  0  0
   49.0465  -34.2480 -107.1511 N   0  0  0  0  0  0  0  0  0  0  0  0
   46.5271  -32.5523 -106.5928 N   0  0  0  0  0  0  0  0  0  0  0  0
   45.6762  -31.8335 -105.9231 C   0  0  0  0  0  0  0  0  0  0  0  0
   46.0552  -31.6925 -104.6085 N   0  0  0  0  0  0  0  0  0  0  0  0
  2  1  1  6  0  0  0
  2  3  1  0  0  0  0
  2  5  1  0  0  0  0
  3  4  1  0  0  0  0
  3 17  1  0  0  0  0
  5  6  1  0  0  0  0
  7  6  1  6  0  0  0
  7  8  1  0  0  0  0
  7  9  1  0  0  0  0
 10  9  1  6  0  0  0
 10 11  1  0  0  0  0
 10 12  1  0  0  0  0
 11 16  1  0  0  0  0
 12 13  1  1  0  0  0
 12 14  1  0  0  0  0
 14 15  1  1  0  0  0
 14 16  1  0  0  0  0
 16 27  1  6  0  0  0
 18 19  2  0  0  0  0
 18 23  1  0  0  0  0
 19 20  1  0  0  0  0
 20 21  2  0  0  0  0
 21 22  1  0  0  0  0
 21 27  1  0  0  0  0
 22 23  2  0  0  0  0
 22 25  1  0  0  0  0
 23 24  1  0  0  0  0
 25 26  2  0  0  0  0
 26 27  1  0  0  0  0
M  END
>  <CHROM.1>
-33.52723727,58.99612928,-179.29888284,-67.26890829,-152.26068057,-174.67323246
112.25596846,47.75243651,-29.05942440,-103.87651494,-1.21905423,-0.79547727
-2.79771183

>  <Name>
ligand

>  <RI>
0

>  <Rbt.Current_Directory>
/home/itssahil/PROJECTS/Mol_Feturizer/New_Systems/rnas/4L81

>  <Rbt.Executable>
rbdock ($Id: //depot/dev/client3/rdock/2013.1/src/exe/rbdock.cxx#4 $)

>  <Rbt.Library>
libRbt.so (2013.1, Build901 2013/11/27)

>  <Rbt.Parameter_File>
/export/apps/rDock/src/rDock_2013.1_src/data/scripts/dock_solv.prm

>  <Rbt.Receptor>
prm/pocket_docking_6.prm

>  <SCORE>
-10.277

>  <SCORE.INTER>
-9.29959

>  <SCORE.INTER.CONST>
1

>  <SCORE.INTER.POLAR>
0

>  <SCORE.INTER.ROT>
7

>  <SCORE.INTER.SOLV>
6.2907

>  <SCORE.INTER.VDW>
-16.5633

>  <SCORE.INTER.norm>
-0.344429

>  <SCORE.INTRA>
-0.977402

>  <SCORE.INTRA.DIHEDRAL>
-2.07074

>  <SCORE.INTRA.DIHEDRAL.0>
8.34559

>  <SCORE.INTRA.POLAR>
0

>  <SCORE.INTRA.POLAR.0>
0

>  <SCORE.INTRA.REPUL>
0

>  <SCORE.INTRA.REPUL.0>
0

>  <SCORE.INTRA.SOLV>
-0.289097

>  <SCORE.INTRA.SOLV.lig_0>
-48.829

>  <SCORE.INTRA.VDW>
0.202517

>  <SCORE.INTRA.VDW.0>
-1.77092

>  <SCORE.INTRA.norm>
-0.0362001

>  <SCORE.RESTR>
0

>  <SCORE.RESTR.CAVITY>
0

>  <SCORE.RESTR.norm>
0

>  <SCORE.SYSTEM>
0

>  <SCORE.SYSTEM.CONST>
0

>  <SCORE.SYSTEM.DIHEDRAL>
0

>  <SCORE.SYSTEM.SOLV>
0

>  <SCORE.SYSTEM.norm>
0

>  <SCORE.heavy>
27

>  <SCORE.norm>
-0.380629

>  <RMSD>
5.230

$$$$
ligand
 OpenBabel11021811503D
libRbt.so/2013.1/901 2013/11/27
 27 29  0  0  0  0  0  0  0  0999 V2000
   46.5508  -28.0785 -104.3109 N   0  0  0  0  0  0  0  0  0  0  0  0
   45.7539  -29.2992 -104.1449 C   0  0  2  0  0  0  0  0  0  0  0  0
   45.1656  -29.7040 -105.4801 C   0  0  0  0  0  0  0  0  0  0  0  0
   44.4665  -28.9217 -106.1061 O   0  0  0  0  0  0  0  0  0  0  0  0
   44.6108  -29.0885 -103.1427 C   0  0  0  0  0  0  0  0  0  0  0  0
   45.1570  -28.8034 -101.7508 C   0  0  0  0  0  0  0  0  0  0  0  0
   45.9769  -30.2526 -100.9821 S   0  0  2  0  0  0  0  0  0  0  0  0
   46.1927  -29.7625  -99.2406 C   0  0  0  0  0  0  0  0  0  0  0  0
   47.6184  -29.8699 -101.5884 C   0  0  0  0  0  0  0  0  0  0  0  0
   48.6484  -30.9143 -101.2489 C   0  0  1  0  0  0  0  0  0  0  0  0
   48.5597  -31.9580 -102.2336 O   0  0  0  0  0  0  0  0  0  0  0  0
   49.9204  -30.2090 -101.4987 C   0  0  1  0  0  0  0  0  0  0  0  0
   50.4377  -29.7039 -100.2688 O   0  0  0  0  0  0  0  0  0  0  0  0
   50.8019  -31.3050 -102.0123 C   0  0  1  0  0  0  0  0  0  0  0  0
   51.4457  -31.9867 -100.9159 O   0  0  0  0  0  0  0  0  0  0  0  0
   49.8643  -32.2917 -102.7709 C   0  0  2  0  0  0  0  0  0  0  0  0
   45.4111  -30.7987 -105.9558 O   0  0  0  0  0  0  0  0  0  0  0  0
   50.9803  -33.9632 -107.6861 N   0  0  0  0  0  0  0  0  0  0  0  0
   51.3962  -34.5029 -106.5140 C   0  0  0  0  0  0  0  0  0  0  0  0
   51.0038  -34.0031 -105.3236 N   0  0  0  0  0  0  0  0  0  0  0  0
   50.2531  -32.8913 -105.2616 C   0  0  0  0  0  0  0  0  0  0  0  0
   49.8215  -32.2595 -106.4852 C   0  0  0  0  0  0  0  0  0  0  0  0
   50.2133  -32.8530 -107.7219 C   0  0  0  0  0  0  0  0  0  0  0  0
   49.8274  -32.3066 -108.9290 N   0  0  0  0  0  0  0  0  0  0  0  0
   49.1019  -31.1835 -106.1458 N   0  0  0  0  0  0  0  0  0  0  0  0
   49.0612  -31.0945 -104.8497 C   0  0  0  0  0  0  0  0  0  0  0  0
   49.7471  -32.1242 -104.2489 N   0  0  0  0  0  0  0  0  0  0  0  0
  2  1  1  6  0  0  0
  2  3  1  0  0  0  0
  2  5  1  0  0  0  0
  3  4  1  0  0  0  0
  3 17  1  0  0  0  0
  5  6  1  0  0  0  0
  7  6  1  6  0  0  0
  7  8  1  0  0  0  0
  7  9  1  0  0  0  0
 10  9  1  6  0  0  0
 10 11  1  0  0  0  0
 10 12  1  0  0  0  0
 11 16  1  0  0  0  0
 12 13  1  1  0  0  0
 12 14  1  0  0  0  0
 14 15  1  1  0  0  0
 14 16  1  0  0  0  0
 16 27  1  6  0  0  0
 18 19  2  0  0  0  0
 18 23  1  0  0  0  0
 19 20  1  0  0  0  0
 20 21  2  0  0  0  0
 21 22  1  0  0  0  0
 21 27  1  0  0  0  0
 22 23  2  0  0  0  0
 22 25  1  0  0  0  0
 23 24  1  0  0  0  0
 25 26  2  0  0  0  0
 26 27  1  0  0  0  0
M  END
>  <CHROM.1>
-56.66624573,-64.35255951,-68.93743205,-167.91489415,-175.91712805,83.18680451
-139.66954485,48.28002668,-31.03100188,-103.74022614,2.30936894,-0.51299646
1.35342973

>  <Name>
ligand

>  <RI>
0

>  <Rbt.Current_Directory>
/home/itssahil/PROJECTS/Mol_Feturizer/New_Systems/rnas/4L81

>  <Rbt.Executable>
rbdock ($Id: //depot/dev/client3/rdock/2013.1/src/exe/rbdock.cxx#4 $)

>  <Rbt.Library>
libRbt.so (2013.1, Build901 2013/11/27)

>  <Rbt.Parameter_File>
/export/apps/rDock/src/rDock_2013.1_src/data/scripts/dock_solv.prm

>  <Rbt.Receptor>
prm/pocket_docking_7.prm

>  <SCORE>
-14.6319

>  <SCORE.INTER>
-12.7439

>  <SCORE.INTER.CONST>
1

>  <SCORE.INTER.POLAR>
0

>  <SCORE.INTER.ROT>
7

>  <SCORE.INTER.SOLV>
13.5418

>  <SCORE.INTER.VDW>
-21.2765

>  <SCORE.INTER.norm>
-0.471996

>  <SCORE.INTRA>
-1.88802

>  <SCORE.INTRA.DIHEDRAL>
-1.42716

>  <SCORE.INTRA.DIHEDRAL.0>
8.34559

>  <SCORE.INTRA.POLAR>
0

>  <SCORE.INTRA.POLAR.0>
0

>  <SCORE.INTRA.REPUL>
0

>  <SCORE.INTRA.REPUL.0>
0

>  <SCORE.INTRA.SOLV>
0.774065

>  <SCORE.INTRA.SOLV.lig_0>
-48.829

>  <SCORE.INTRA.VDW>
-1.56147

>  <SCORE.INTRA.VDW.0>
-1.77092

>  <SCORE.INTRA.norm>
-0.0699268

>  <SCORE.RESTR>
0

>  <SCORE.RESTR.CAVITY>
0

>  <SCORE.RESTR.norm>
0

>  <SCORE.SYSTEM>
0

>  <SCORE.SYSTEM.CONST>
0

>  <SCORE.SYSTEM.DIHEDRAL>
0

>  <SCORE.SYSTEM.SOLV>
0

>  <SCORE.SYSTEM.norm>
0

>  <SCORE.heavy>
27

>  <SCORE.norm>
-0.541923

>  <RMSD>
5.243

$$$$
ligand
 OpenBabel11021811503D
libRbt.so/2013.1/901 2013/11/27
 27 29  0  0  0  0  0  0  0  0999 V2000
   49.7669  -27.1812 -103.6222 N   0  0  0  0  0  0  0  0  0  0  0  0
   49.0418  -26.0228 -104.1560 C   0  0  2  0  0  0  0  0  0  0  0  0
   48.6082  -25.1280 -103.0140 C   0  0  0  0  0  0  0  0  0  0  0  0
   48.5969  -23.9144 -103.1545 O   0  0  0  0  0  0  0  0  0  0  0  0
   47.7993  -26.4564 -104.9456 C   0  0  0  0  0  0  0  0  0  0  0  0
   46.8499  -27.2561 -104.0647 C   0  0  0  0  0  0  0  0  0  0  0  0
   45.3267  -27.7888 -104.9361 S   0  0  2  0  0  0  0  0  0  0  0  0
   44.4125  -26.2370 -105.2110 C   0  0  0  0  0  0  0  0  0  0  0  0
   44.4742  -28.3623 -103.4687 C   0  0  0  0  0  0  0  0  0  0  0  0
   43.9426  -29.7660 -103.5865 C   0  0  1  0  0  0  0  0  0  0  0  0
   44.9904  -30.5911 -104.1233 O   0  0  0  0  0  0  0  0  0  0  0  0
   43.7727  -30.1681 -102.1769 C   0  0  1  0  0  0  0  0  0  0  0  0
   42.4121  -29.9868 -101.7876 O   0  0  0  0  0  0  0  0  0  0  0  0
   44.1031  -31.6281 -102.2155 C   0  0  1  0  0  0  0  0  0  0  0  0
   42.9266  -32.4007 -102.5322 O   0  0  0  0  0  0  0  0  0  0  0  0
   45.1667  -31.7991 -103.3413 C   0  0  2  0  0  0  0  0  0  0  0  0
   48.2361  -25.6111 -101.9590 O   0  0  0  0  0  0  0  0  0  0  0  0
   48.9894  -30.3163  -99.9669 N   0  0  0  0  0  0  0  0  0  0  0  0
   47.6756  -29.9843  -99.9268 C   0  0  0  0  0  0  0  0  0  0  0  0
   46.7940  -30.4658 -100.8279 N   0  0  0  0  0  0  0  0  0  0  0  0
   47.2097  -31.2254 -101.8543 C   0  0  0  0  0  0  0  0  0  0  0  0
   48.6072  -31.5698 -101.9595 C   0  0  0  0  0  0  0  0  0  0  0  0
   49.4958  -31.0850 -100.9542 C   0  0  0  0  0  0  0  0  0  0  0  0
   50.8426  -31.3845 -100.9883 N   0  0  0  0  0  0  0  0  0  0  0  0
   48.7515  -32.3186 -103.0592 N   0  0  0  0  0  0  0  0  0  0  0  0
   47.5928  -32.4546 -103.6322 C   0  0  0  0  0  0  0  0  0  0  0  0
   46.6013  -31.8087 -102.9311 N   0  0  0  0  0  0  0  0  0  0  0  0
  2  1  1  1  0  0  0
  2  3  1  0  0  0  0
  2  5  1  0  0  0  0
  3  4  1  0  0  0  0
  3 17  1  0  0  0  0
  5  6  1  0  0  0  0
  7  6  1  1  0  0  0
  7  8  1  0  0  0  0
  7  9  1  0  0  0  0
 10  9  1  1  0  0  0
 10 11  1  0  0  0  0
 10 12  1  0  0  0  0
 11 16  1  0  0  0  0
 12 13  1  6  0  0  0
 12 14  1  0  0  0  0
 14 15  1  6  0  0  0
 14 16  1  0  0  0  0
 16 27  1  1  0  0  0
 18 19  2  0  0  0  0
 18 23  1  0  0  0  0
 19 20  1  0  0  0  0
 20 21  2  0  0  0  0
 21 22  1  0  0  0  0
 21 27  1  0  0  0  0
 22 23  2  0  0  0  0
 22 25  1  0  0  0  0
 23 24  1  0  0  0  0
 25 26  2  0  0  0  0
 26 27  1  0  0  0  0
M  END
>  <CHROM.1>
144.44338416,59.12469510,179.15995369,-69.15711001,-128.04912759,47.15447195
86.10936719,46.64588301,-29.23016776,-102.88403949,-1.12299725,0.29983160
2.77546732

>  <Name>
ligand

>  <RI>
0

>  <Rbt.Current_Directory>
/home/itssahil/PROJECTS/Mol_Feturizer/New_Systems/rnas/4L81

>  <Rbt.Executable>
rbdock ($Id: //depot/dev/client3/rdock/2013.1/src/exe/rbdock.cxx#4 $)

>  <Rbt.Library>
libRbt.so (2013.1, Build901 2013/11/27)

>  <Rbt.Parameter_File>
/export/apps/rDock/src/rDock_2013.1_src/data/scripts/dock_solv.prm

>  <Rbt.Receptor>
prm/pocket_docking_3.prm

>  <SCORE>
-14.3186

>  <SCORE.INTER>
-13.0023

>  <SCORE.INTER.CONST>
1

>  <SCORE.INTER.POLAR>
0

>  <SCORE.INTER.ROT>
7

>  <SCORE.INTER.SOLV>
16.3922

>  <SCORE.INTER.VDW>
-22.3989

>  <SCORE.INTER.norm>
-0.481565

>  <SCORE.INTRA>
-1.31629

>  <SCORE.INTRA.DIHEDRAL>
-0.187633

>  <SCORE.INTRA.DIHEDRAL.0>
8.34559

>  <SCORE.INTRA.POLAR>
0

>  <SCORE.INTRA.POLAR.0>
0

>  <SCORE.INTRA.REPUL>
0

>  <SCORE.INTRA.REPUL.0>
0

>  <SCORE.INTRA.SOLV>
-0.579804

>  <SCORE.INTRA.SOLV.lig_0>
-48.829

>  <SCORE.INTRA.VDW>
-0.932568

>  <SCORE.INTRA.VDW.0>
-1.77092

>  <SCORE.INTRA.norm>
-0.0487514

>  <SCORE.RESTR>
0

>  <SCORE.RESTR.CAVITY>
0

>  <SCORE.RESTR.norm>
0

>  <SCORE.SYSTEM>
0

>  <SCORE.SYSTEM.CONST>
0

>  <SCORE.SYSTEM.DIHEDRAL>
0

>  <SCORE.SYSTEM.SOLV>
0

>  <SCORE.SYSTEM.norm>
0

>  <SCORE.heavy>
27

>  <SCORE.norm>
-0.530317

>  <RMSD>
5.253

$$$$
ligand
 OpenBabel11021811503D
libRbt.so/2013.1/901 2013/11/27
 27 29  0  0  0  0  0  0  0  0999 V2000
   48.4631  -22.8253 -102.0020 N   0  0  0  0  0  0  0  0  0  0  0  0
   48.8429  -24.0347 -102.7407 C   0  0  2  0  0  0  0  0  0  0  0  0
   49.5391  -23.6433 -104.0271 C   0  0  0  0  0  0  0  0  0  0  0  0
   49.0707  -22.7661 -104.7369 O   0  0  0  0  0  0  0  0  0  0  0  0
   47.6151  -24.8901 -103.0817 C   0  0  0  0  0  0  0  0  0  0  0  0
   48.0291  -26.1760 -103.7830 C   0  0  0  0  0  0  0  0  0  0  0  0
   46.6130  -27.2660 -104.1953 S   0  0  2  0  0  0  0  0  0  0  0  0
   45.2835  -26.1059 -104.6492 C   0  0  0  0  0  0  0  0  0  0  0  0
   46.1382  -27.5891 -102.4985 C   0  0  0  0  0  0  0  0  0  0  0  0
   44.9225  -28.4675 -102.3664 C   0  0  1  0  0  0  0  0  0  0  0  0
   44.6632  -29.0582 -103.6512 O   0  0  0  0  0  0  0  0  0  0  0  0
   45.4020  -29.5563 -101.4933 C   0  0  1  0  0  0  0  0  0  0  0  0
   45.0128  -29.2963 -100.1456 O   0  0  0  0  0  0  0  0  0  0  0  0
   44.6581  -30.7441 -102.0202 C   0  0  1  0  0  0  0  0  0  0  0  0
   43.3708  -30.8553 -101.3783 O   0  0  0  0  0  0  0  0  0  0  0  0
   44.4679  -30.4910 -103.5459 C   0  0  2  0  0  0  0  0  0  0  0  0
   50.5874  -24.1754 -104.3476 O   0  0  0  0  0  0  0  0  0  0  0  0
   48.7788  -33.4948 -104.3148 N   0  0  0  0  0  0  0  0  0  0  0  0
   48.2012  -33.1630 -103.1341 C   0  0  0  0  0  0  0  0  0  0  0  0
   47.0751  -32.4215 -103.0783 N   0  0  0  0  0  0  0  0  0  0  0  0
   46.5358  -31.9103 -104.1969 C   0  0  0  0  0  0  0  0  0  0  0  0
   47.1418  -32.2041 -105.4732 C   0  0  0  0  0  0  0  0  0  0  0  0
   48.2994  -33.0377 -105.4909 C   0  0  0  0  0  0  0  0  0  0  0  0
   48.9232  -33.3665 -106.6773 N   0  0  0  0  0  0  0  0  0  0  0  0
   46.4212  -31.5769 -106.4103 N   0  0  0  0  0  0  0  0  0  0  0  0
   45.4519  -30.9299 -105.8348 C   0  0  0  0  0  0  0  0  0  0  0  0
   45.4660  -31.1035 -104.4705 N   0  0  0  0  0  0  0  0  0  0  0  0
  2  1  1  6  0  0  0
  2  3  1  0  0  0  0
  2  5  1  0  0  0  0
  3  4  1  0  0  0  0
  3 17  1  0  0  0  0
  5  6  1  0  0  0  0
  7  6  1  1  0  0  0
  7  8  1  0  0  0  0
  7  9  1  0  0  0  0
 10  9  1  6  0  0  0
 10 11  1  0  0  0  0
 10 12  1  0  0  0  0
 11 16  1  0  0  0  0
 12 13  1  1  0  0  0
 12 14  1  0  0  0  0
 14 15  1  1  0  0  0
 14 16  1  0  0  0  0
 16 27  1  6  0  0  0
 18 19  2  0  0  0  0
 18 23  1  0  0  0  0
 19 20  1  0  0  0  0
 20 21  2  0  0  0  0
 21 22  1  0  0  0  0
 21 27  1  0  0  0  0
 22 23  2  0  0  0  0
 22 25  1  0  0  0  0
 23 24  1  0  0  0  0
 25 26  2  0  0  0  0
 26 27  1  0  0  0  0
M  END
>  <CHROM.1>
-45.96476919,-177.03430780,178.95378120,36.45213732,178.47556275,13.26026547
115.55655168,46.82221904,-28.74880681,-103.68363012,1.27148076,0.65362129
0.26210206

>  <Name>
ligand

>  <RI>
0

>  <Rbt.Current_Directory>
/home/itssahil/PROJECTS/Mol_Feturizer/New_Systems/rnas/4L81

>  <Rbt.Executable>
rbdock ($Id: //depot/dev/client3/rdock/2013.1/src/exe/rbdock.cxx#4 $)

>  <Rbt.Library>
libRbt.so (2013.1, Build901 2013/11/27)

>  <Rbt.Parameter_File>
/export/apps/rDock/src/rDock_2013.1_src/data/scripts/dock_solv.prm

>  <Rbt.Receptor>
prm/pocket_docking_7.prm

>  <SCORE>
-8.70612

>  <SCORE.INTER>
-9.58355

>  <SCORE.INTER.CONST>
1

>  <SCORE.INTER.POLAR>
0

>  <SCORE.INTER.ROT>
7

>  <SCORE.INTER.SOLV>
13.4922

>  <SCORE.INTER.VDW>
-19.1531

>  <SCORE.INTER.norm>
-0.354946

>  <SCORE.INTRA>
0.877437

>  <SCORE.INTRA.DIHEDRAL>
0.0216915

>  <SCORE.INTRA.DIHEDRAL.0>
8.34559

>  <SCORE.INTRA.POLAR>
0

>  <SCORE.INTRA.POLAR.0>
0

>  <SCORE.INTRA.REPUL>
0

>  <SCORE.INTRA.REPUL.0>
0

>  <SCORE.INTRA.SOLV>
-1.14811

>  <SCORE.INTRA.SOLV.lig_0>
-48.829

>  <SCORE.INTRA.VDW>
1.44065

>  <SCORE.INTRA.VDW.0>
-1.77092

>  <SCORE.INTRA.norm>
0.0324977

>  <SCORE.RESTR>
0

>  <SCORE.RESTR.CAVITY>
0

>  <SCORE.RESTR.norm>
0

>  <SCORE.SYSTEM>
0

>  <SCORE.SYSTEM.CONST>
0

>  <SCORE.SYSTEM.DIHEDRAL>
0

>  <SCORE.SYSTEM.SOLV>
0

>  <SCORE.SYSTEM.norm>
0

>  <SCORE.heavy>
27

>  <SCORE.norm>
-0.322449

>  <RMSD>
5.255

$$$$
ligand
 OpenBabel11021811503D
libRbt.so/2013.1/901 2013/11/27
 27 29  0  0  0  0  0  0  0  0999 V2000
   44.2536  -29.5086 -103.0971 N   0  0  0  0  0  0  0  0  0  0  0  0
   43.8542  -30.9066 -102.9000 C   0  0  2  0  0  0  0  0  0  0  0  0
   43.3549  -31.0944 -101.4829 C   0  0  0  0  0  0  0  0  0  0  0  0
   43.9328  -30.5551 -100.5513 O   0  0  0  0  0  0  0  0  0  0  0  0
   45.0296  -31.8632 -103.1426 C   0  0  0  0  0  0  0  0  0  0  0  0
   45.5974  -31.6790 -104.5428 C   0  0  0  0  0  0  0  0  0  0  0  0
   47.4304  -31.7091 -104.5922 S   0  0  2  0  0  0  0  0  0  0  0  0
   47.8715  -33.1895 -103.6260 C   0  0  0  0  0  0  0  0  0  0  0  0
   47.6626  -30.4653 -103.3243 C   0  0  0  0  0  0  0  0  0  0  0  0
   49.0358  -30.4782 -102.7071 C   0  0  1  0  0  0  0  0  0  0  0  0
   49.8199  -29.4614 -103.3539 O   0  0  0  0  0  0  0  0  0  0  0  0
   48.7794  -30.0004 -101.3347 C   0  0  1  0  0  0  0  0  0  0  0  0
   48.6792  -31.1152 -100.4501 O   0  0  0  0  0  0  0  0  0  0  0  0
   50.0173  -29.2152 -101.0295 C   0  0  1  0  0  0  0  0  0  0  0  0
   51.0395  -30.0791 -100.4909 O   0  0  0  0  0  0  0  0  0  0  0  0
   50.4928  -28.6161 -102.3871 C   0  0  2  0  0  0  0  0  0  0  0  0
   42.3555  -31.7563 -101.2638 O   0  0  0  0  0  0  0  0  0  0  0  0
   46.6351  -25.0925 -103.3362 N   0  0  0  0  0  0  0  0  0  0  0  0
   46.5030  -26.4212 -103.1015 C   0  0  0  0  0  0  0  0  0  0  0  0
   47.5685  -27.2037 -102.8307 N   0  0  0  0  0  0  0  0  0  0  0  0
   48.8140  -26.7031 -102.8728 C   0  0  0  0  0  0  0  0  0  0  0  0
   49.0042  -25.3016 -103.1595 C   0  0  0  0  0  0  0  0  0  0  0  0
   47.8465  -24.4991 -103.3852 C   0  0  0  0  0  0  0  0  0  0  0  0
   47.9555  -23.1500 -103.6549 N   0  0  0  0  0  0  0  0  0  0  0  0
   50.3217  -25.0674 -103.1464 N   0  0  0  0  0  0  0  0  0  0  0  0
   50.9455  -26.1788 -102.8913 C   0  0  0  0  0  0  0  0  0  0  0  0
   50.0682  -27.2216 -102.7055 N   0  0  0  0  0  0  0  0  0  0  0  0
  2  1  1  1  0  0  0
  2  3  1  0  0  0  0
  2  5  1  0  0  0  0
  3  4  1  0  0  0  0
  3 17  1  0  0  0  0
  5  6  1  0  0  0  0
  7  6  1  1  0  0  0
  7  8  1  0  0  0  0
  7  9  1  0  0  0  0
 10  9  1  6  0  0  0
 10 11  1  0  0  0  0
 10 12  1  0  0  0  0
 11 16  1  0  0  0  0
 12 13  1  1  0  0  0
 12 14  1  0  0  0  0
 14 15  1  6  0  0  0
 14 16  1  0  0  0  0
 16 27  1  1  0  0  0
 18 19  2  0  0  0  0
 18 23  1  0  0  0  0
 19 20  1  0  0  0  0
 20 21  2  0  0  0  0
 21 22  1  0  0  0  0
 21 27  1  0  0  0  0
 22 23  2  0  0  0  0
 22 25  1  0  0  0  0
 23 24  1  0  0  0  0
 25 26  2  0  0  0  0
 26 27  1  0  0  0  0
M  END
>  <CHROM.1>
-41.02631248,-57.32409356,138.13954793,48.44613482,160.90877187,97.90437007
51.50193869,47.55463991,-29.07692535,-102.70152932,2.22065949,0.04511300
3.04675189

>  <Name>
ligand

>  <RI>
0

>  <Rbt.Current_Directory>
/home/itssahil/PROJECTS/Mol_Feturizer/New_Systems/rnas/4L81

>  <Rbt.Executable>
rbdock ($Id: //depot/dev/client3/rdock/2013.1/src/exe/rbdock.cxx#4 $)

>  <Rbt.Library>
libRbt.so (2013.1, Build901 2013/11/27)

>  <Rbt.Parameter_File>
/export/apps/rDock/src/rDock_2013.1_src/data/scripts/dock_solv.prm

>  <Rbt.Receptor>
prm/pocket_docking_3.prm

>  <SCORE>
-7.51913

>  <SCORE.INTER>
-10.0929

>  <SCORE.INTER.CONST>
1

>  <SCORE.INTER.POLAR>
0

>  <SCORE.INTER.ROT>
7

>  <SCORE.INTER.SOLV>
12.3461

>  <SCORE.INTER.VDW>
-19.1106

>  <SCORE.INTER.norm>
-0.373811

>  <SCORE.INTRA>
2.08966

>  <SCORE.INTRA.DIHEDRAL>
3.31976

>  <SCORE.INTRA.DIHEDRAL.0>
8.34559

>  <SCORE.INTRA.POLAR>
0

>  <SCORE.INTRA.POLAR.0>
0

>  <SCORE.INTRA.REPUL>
0

>  <SCORE.INTRA.REPUL.0>
0

>  <SCORE.INTRA.SOLV>
0.775331

>  <SCORE.INTRA.SOLV.lig_0>
-48.829

>  <SCORE.INTRA.VDW>
0.0421117

>  <SCORE.INTRA.VDW.0>
-1.77092

>  <SCORE.INTRA.norm>
0.0773948

>  <SCORE.RESTR>
0.484111

>  <SCORE.RESTR.CAVITY>
0.484111

>  <SCORE.RESTR.norm>
0.01793

>  <SCORE.SYSTEM>
0

>  <SCORE.SYSTEM.CONST>
0

>  <SCORE.SYSTEM.DIHEDRAL>
0

>  <SCORE.SYSTEM.SOLV>
0

>  <SCORE.SYSTEM.norm>
0

>  <SCORE.heavy>
27

>  <SCORE.norm>
-0.278486

>  <RMSD>
5.256

$$$$
ligand
 OpenBabel11021811503D
libRbt.so/2013.1/901 2013/11/27
 27 29  0  0  0  0  0  0  0  0999 V2000
   48.1036  -21.6847 -104.1493 N   0  0  0  0  0  0  0  0  0  0  0  0
   48.4250  -22.8498 -103.3175 C   0  0  2  0  0  0  0  0  0  0  0  0
   49.9284  -23.0019 -103.2203 C   0  0  0  0  0  0  0  0  0  0  0  0
   50.6268  -22.8490 -104.2111 O   0  0  0  0  0  0  0  0  0  0  0  0
   47.8333  -24.1375 -103.9066 C   0  0  0  0  0  0  0  0  0  0  0  0
   48.0568  -25.3148 -102.9680 C   0  0  0  0  0  0  0  0  0  0  0  0
   47.2347  -26.8555 -103.5280 S   0  0  2  0  0  0  0  0  0  0  0  0
   45.4583  -26.4571 -103.4542 C   0  0  0  0  0  0  0  0  0  0  0  0
   47.3950  -27.7195 -101.9671 C   0  0  0  0  0  0  0  0  0  0  0  0
   46.2236  -28.6082 -101.6433 C   0  0  1  0  0  0  0  0  0  0  0  0
   46.1481  -29.6254 -102.6565 O   0  0  0  0  0  0  0  0  0  0  0  0
   46.6594  -29.2815 -100.4047 C   0  0  1  0  0  0  0  0  0  0  0  0
   46.1031  -28.6122  -99.2742 O   0  0  0  0  0  0  0  0  0  0  0  0
   46.0493  -30.6418 -100.5447 C   0  0  1  0  0  0  0  0  0  0  0  0
   44.7048  -30.6450 -100.0215 O   0  0  0  0  0  0  0  0  0  0  0  0
   46.0227  -30.9465 -102.0726 C   0  0  2  0  0  0  0  0  0  0  0  0
   50.4557  -23.2448 -102.1490 O   0  0  0  0  0  0  0  0  0  0  0  0
   51.1743  -32.2346 -102.0727 N   0  0  0  0  0  0  0  0  0  0  0  0
   50.5521  -31.3114 -101.2990 C   0  0  0  0  0  0  0  0  0  0  0  0
   49.2198  -31.1087 -101.3686 N   0  0  0  0  0  0  0  0  0  0  0  0
   48.4747  -31.7589 -102.2772 C   0  0  0  0  0  0  0  0  0  0  0  0
   49.1030  -32.7214 -103.1498 C   0  0  0  0  0  0  0  0  0  0  0  0
   50.5045  -32.9449 -103.0048 C   0  0  0  0  0  0  0  0  0  0  0  0
   51.1670  -33.8581 -103.7998 N   0  0  0  0  0  0  0  0  0  0  0  0
   48.1510  -33.2139 -103.9511 N   0  0  0  0  0  0  0  0  0  0  0  0
   47.0190  -32.6452 -103.6607 C   0  0  0  0  0  0  0  0  0  0  0  0
   47.1538  -31.7435 -102.6308 N   0  0  0  0  0  0  0  0  0  0  0  0
  2  1  1  6  0  0  0
  2  3  1  0  0  0  0
  2  5  1  0  0  0  0
  3  4  1  0  0  0  0
  3 17  1  0  0  0  0
  5  6  1  0  0  0  0
  7  6  1  1  0  0  0
  7  8  1  0  0  0  0
  7  9  1  0  0  0  0
 10  9  1  6  0  0  0
 10 11  1  0  0  0  0
 10 12  1  0  0  0  0
 11 16  1  0  0  0  0
 12 13  1  1  0  0  0
 12 14  1  0  0  0  0
 14 15  1  6  0  0  0
 14 16  1  0  0  0  0
 16 27  1  1  0  0  0
 18 19  2  0  0  0  0
 18 23  1  0  0  0  0
 19 20  1  0  0  0  0
 20 21  2  0  0  0  0
 21 22  1  0  0  0  0
 21 27  1  0  0  0  0
 22 23  2  0  0  0  0
 22 25  1  0  0  0  0
 23 24  1  0  0  0  0
 25 26  2  0  0  0  0
 26 27  1  0  0  0  0
M  END
>  <CHROM.1>
-42.39631257,-174.49391643,174.38478516,-64.57783591,144.23299011,62.59503834
78.86516594,47.99573941,-28.54553017,-102.50334053,-1.53271234,-0.38676389
3.03447340

>  <Name>
ligand

>  <RI>
0

>  <Rbt.Current_Directory>
/home/itssahil/PROJECTS/Mol_Feturizer/New_Systems/rnas/4L81

>  <Rbt.Executable>
rbdock ($Id: //depot/dev/client3/rdock/2013.1/src/exe/rbdock.cxx#4 $)

>  <Rbt.Library>
libRbt.so (2013.1, Build901 2013/11/27)

>  <Rbt.Parameter_File>
/export/apps/rDock/src/rDock_2013.1_src/data/scripts/dock_solv.prm

>  <Rbt.Receptor>
prm/pocket_docking_6.prm

>  <SCORE>
-16.8228

>  <SCORE.INTER>
-15.3642

>  <SCORE.INTER.CONST>
1

>  <SCORE.INTER.POLAR>
0

>  <SCORE.INTER.ROT>
7

>  <SCORE.INTER.SOLV>
12.9566

>  <SCORE.INTER.VDW>
-22.8283

>  <SCORE.INTER.norm>
-0.569045

>  <SCORE.INTRA>
-1.49763

>  <SCORE.INTRA.DIHEDRAL>
-2.66548

>  <SCORE.INTRA.DIHEDRAL.0>
8.34559

>  <SCORE.INTRA.POLAR>
0

>  <SCORE.INTRA.POLAR.0>
0

>  <SCORE.INTRA.REPUL>
0

>  <SCORE.INTRA.REPUL.0>
0

>  <SCORE.INTRA.SOLV>
-1.25247

>  <SCORE.INTRA.SOLV.lig_0>
-48.829

>  <SCORE.INTRA.VDW>
0.461349

>  <SCORE.INTRA.VDW.0>
-1.77092

>  <SCORE.INTRA.norm>
-0.0554676

>  <SCORE.RESTR>
0.039003

>  <SCORE.RESTR.CAVITY>
0.039003

>  <SCORE.RESTR.norm>
0.00144456

>  <SCORE.SYSTEM>
0

>  <SCORE.SYSTEM.CONST>
0

>  <SCORE.SYSTEM.DIHEDRAL>
0

>  <SCORE.SYSTEM.SOLV>
0

>  <SCORE.SYSTEM.norm>
0

>  <SCORE.heavy>
27

>  <SCORE.norm>
-0.623068

>  <RMSD>
5.259

$$$$
ligand
 OpenBabel11021811503D
libRbt.so/2013.1/901 2013/11/27
 27 29  0  0  0  0  0  0  0  0999 V2000
   50.3030  -25.0226 -102.9746 N   0  0  0  0  0  0  0  0  0  0  0  0
   48.9437  -24.7529 -103.4568 C   0  0  2  0  0  0  0  0  0  0  0  0
   48.3035  -23.6868 -102.5930 C   0  0  0  0  0  0  0  0  0  0  0  0
   48.1791  -22.5469 -103.0150 O   0  0  0  0  0  0  0  0  0  0  0  0
   48.0736  -26.0164 -103.4116 C   0  0  0  0  0  0  0  0  0  0  0  0
   46.6921  -25.7432 -103.9893 C   0  0  0  0  0  0  0  0  0  0  0  0
   45.8045  -27.2652 -104.4982 S   0  0  2  0  0  0  0  0  0  0  0  0
   44.1221  -26.6834 -104.8862 C   0  0  0  0  0  0  0  0  0  0  0  0
   45.5182  -27.8677 -102.8357 C   0  0  0  0  0  0  0  0  0  0  0  0
   44.4927  -28.9674 -102.7582 C   0  0  1  0  0  0  0  0  0  0  0  0
   44.8369  -29.9616 -103.7380 O   0  0  0  0  0  0  0  0  0  0  0  0
   44.7614  -29.5693 -101.4378 C   0  0  1  0  0  0  0  0  0  0  0  0
   43.8522  -29.0381 -100.4752 O   0  0  0  0  0  0  0  0  0  0  0  0
   44.4647  -31.0174 -101.6766 C   0  0  1  0  0  0  0  0  0  0  0  0
   43.0629  -31.2842 -101.4642 O   0  0  0  0  0  0  0  0  0  0  0  0
   44.8359  -31.2933 -103.1646 C   0  0  2  0  0  0  0  0  0  0  0  0
   47.8780  -23.9638 -101.4853 O   0  0  0  0  0  0  0  0  0  0  0  0
   48.3368  -33.3965 -106.5584 N   0  0  0  0  0  0  0  0  0  0  0  0
   47.0539  -33.0372 -106.8095 C   0  0  0  0  0  0  0  0  0  0  0  0
   46.2772  -32.4705 -105.8627 N   0  0  0  0  0  0  0  0  0  0  0  0
   46.7266  -32.3241 -104.6057 C   0  0  0  0  0  0  0  0  0  0  0  0
   48.0731  -32.7311 -104.2835 C   0  0  0  0  0  0  0  0  0  0  0  0
   48.8785  -33.2746 -105.3281 C   0  0  0  0  0  0  0  0  0  0  0  0
   50.1780  -33.6750 -105.0918 N   0  0  0  0  0  0  0  0  0  0  0  0
   48.2630  -32.4853 -102.9818 N   0  0  0  0  0  0  0  0  0  0  0  0
   47.1729  -31.9824 -102.4838 C   0  0  0  0  0  0  0  0  0  0  0  0
   46.1920  -31.8519 -103.4390 N   0  0  0  0  0  0  0  0  0  0  0  0
  2  1  1  1  0  0  0
  2  3  1  0  0  0  0
  2  5  1  0  0  0  0
  3  4  1  0  0  0  0
  3 17  1  0  0  0  0
  5  6  1  0  0  0  0
  7  6  1  1  0  0  0
  7  8  1  0  0  0  0
  7  9  1  0  0  0  0
 10  9  1  6  0  0  0
 10 11  1  0  0  0  0
 10 12  1  0  0  0  0
 11 16  1  0  0  0  0
 12 13  1  1  0  0  0
 12 14  1  0  0  0  0
 14 15  1  6  0  0  0
 14 16  1  0  0  0  0
 16 27  1  1  0  0  0
 18 19  2  0  0  0  0
 18 23  1  0  0  0  0
 19 20  1  0  0  0  0
 20 21  2  0  0  0  0
 21 22  1  0  0  0  0
 21 27  1  0  0  0  0
 22 23  2  0  0  0  0
 22 25  1  0  0  0  0
 23 24  1  0  0  0  0
 25 26  2  0  0  0  0
 26 27  1  0  0  0  0
M  END
>  <CHROM.1>
105.04584162,-176.70360657,160.41994742,171.21215209,165.42714989,49.85991531
-74.76451243,46.62073833,-29.12288114,-103.52785984,-1.49620124,-0.47269625
-2.91931311

>  <Name>
ligand

>  <RI>
0

>  <Rbt.Current_Directory>
/home/itssahil/PROJECTS/Mol_Feturizer/New_Systems/rnas/4L81

>  <Rbt.Executable>
rbdock ($Id: //depot/dev/client3/rdock/2013.1/src/exe/rbdock.cxx#4 $)

>  <Rbt.Library>
libRbt.so (2013.1, Build901 2013/11/27)

>  <Rbt.Parameter_File>
/export/apps/rDock/src/rDock_2013.1_src/data/scripts/dock_solv.prm

>  <Rbt.Receptor>
prm/pocket_docking_6.prm

>  <SCORE>
-15.2402

>  <SCORE.INTER>
-13.4917

>  <SCORE.INTER.CONST>
1

>  <SCORE.INTER.POLAR>
0

>  <SCORE.INTER.ROT>
7

>  <SCORE.INTER.SOLV>
14.7614

>  <SCORE.INTER.VDW>
-22.1816

>  <SCORE.INTER.norm>
-0.499694

>  <SCORE.INTRA>
-1.74849

>  <SCORE.INTRA.DIHEDRAL>
-3.18503

>  <SCORE.INTRA.DIHEDRAL.0>
8.34559

>  <SCORE.INTRA.POLAR>
0

>  <SCORE.INTRA.POLAR.0>
0

>  <SCORE.INTRA.REPUL>
0

>  <SCORE.INTRA.REPUL.0>
0

>  <SCORE.INTRA.SOLV>
-1.30012

>  <SCORE.INTRA.SOLV.lig_0>
-48.829

>  <SCORE.INTRA.VDW>
0.494082

>  <SCORE.INTRA.VDW.0>
-1.77092

>  <SCORE.INTRA.norm>
-0.0647589

>  <SCORE.RESTR>
0

>  <SCORE.RESTR.CAVITY>
0

>  <SCORE.RESTR.norm>
0

>  <SCORE.SYSTEM>
0

>  <SCORE.SYSTEM.CONST>
0

>  <SCORE.SYSTEM.DIHEDRAL>
0

>  <SCORE.SYSTEM.SOLV>
0

>  <SCORE.SYSTEM.norm>
0

>  <SCORE.heavy>
27

>  <SCORE.norm>
-0.564453

>  <RMSD>
5.262

$$$$
ligand
 OpenBabel11021811503D
libRbt.so/2013.1/901 2013/11/27
 27 29  0  0  0  0  0  0  0  0999 V2000
   48.8041  -25.0033 -102.7098 N   0  0  0  0  0  0  0  0  0  0  0  0
   49.0547  -26.4460 -102.8015 C   0  0  2  0  0  0  0  0  0  0  0  0
   50.4901  -26.6839 -103.2207 C   0  0  0  0  0  0  0  0  0  0  0  0
   51.0581  -27.7193 -102.9076 O   0  0  0  0  0  0  0  0  0  0  0  0
   48.1229  -27.1114 -103.8234 C   0  0  0  0  0  0  0  0  0  0  0  0
   48.2442  -28.6273 -103.7600 C   0  0  0  0  0  0  0  0  0  0  0  0
   47.7676  -29.4594 -105.3233 S   0  0  2  0  0  0  0  0  0  0  0  0
   48.2773  -28.2846 -106.6192 C   0  0  0  0  0  0  0  0  0  0  0  0
   46.0297  -29.0363 -105.2267 C   0  0  0  0  0  0  0  0  0  0  0  0
   45.2153  -30.0028 -104.4084 C   0  0  1  0  0  0  0  0  0  0  0  0
   45.8952  -31.2696 -104.4163 O   0  0  0  0  0  0  0  0  0  0  0  0
   45.3489  -29.4636 -103.0413 C   0  0  1  0  0  0  0  0  0  0  0  0
   44.2059  -28.6705 -102.7253 O   0  0  0  0  0  0  0  0  0  0  0  0
   45.3572  -30.7049 -102.2039 C   0  0  1  0  0  0  0  0  0  0  0  0
   44.0087  -31.0950 -101.8713 O   0  0  0  0  0  0  0  0  0  0  0  0
   46.0267  -31.8085 -103.0768 C   0  0  2  0  0  0  0  0  0  0  0  0
   51.0786  -25.8613 -103.9004 O   0  0  0  0  0  0  0  0  0  0  0  0
   50.5605  -30.6882 -100.5494 N   0  0  0  0  0  0  0  0  0  0  0  0
   49.3493  -30.1050 -100.3740 C   0  0  0  0  0  0  0  0  0  0  0  0
   48.2590  -30.5143 -101.0556 N   0  0  0  0  0  0  0  0  0  0  0  0
   48.3588  -31.4620 -102.0018 C   0  0  0  0  0  0  0  0  0  0  0  0
   49.6381  -32.0817 -102.2509 C   0  0  0  0  0  0  0  0  0  0  0  0
   50.7534  -31.6574 -101.4689 C   0  0  0  0  0  0  0  0  0  0  0  0
   52.0032  -32.2147 -101.6481 N   0  0  0  0  0  0  0  0  0  0  0  0
   49.4640  -32.9752 -103.2318 N   0  0  0  0  0  0  0  0  0  0  0  0
   48.2195  -32.9538 -103.6061 C   0  0  0  0  0  0  0  0  0  0  0  0
   47.4865  -32.0455 -102.8786 N   0  0  0  0  0  0  0  0  0  0  0  0
  2  1  1  6  0  0  0
  2  3  1  0  0  0  0
  2  5  1  0  0  0  0
  3  4  1  0  0  0  0
  3 17  1  0  0  0  0
  5  6  1  0  0  0  0
  7  6  1  1  0  0  0
  7  8  1  0  0  0  0
  7  9  1  0  0  0  0
 10  9  1  6  0  0  0
 10 11  1  0  0  0  0
 10 12  1  0  0  0  0
 11 16  1  0  0  0  0
 12 13  1  1  0  0  0
 12 14  1  0  0  0  0
 14 15  1  6  0  0  0
 14 16  1  0  0  0  0
 16 27  1  1  0  0  0
 18 19  2  0  0  0  0
 18 23  1  0  0  0  0
 19 20  1  0  0  0  0
 20 21  2  0  0  0  0
 21 22  1  0  0  0  0
 21 27  1  0  0  0  0
 22 23  2  0  0  0  0
 22 25  1  0  0  0  0
 23 24  1  0  0  0  0
 25 26  2  0  0  0  0
 26 27  1  0  0  0  0
M  END
>  <CHROM.1>
153.45552307,-171.47982896,-155.54986384,33.30583110,-85.51011161,-24.83570432
115.51192806,48.05889264,-29.70420137,-103.14959641,0.69555682,-0.29028505
-0.35752055

>  <Name>
ligand

>  <RI>
0

>  <Rbt.Current_Directory>
/home/itssahil/PROJECTS/Mol_Feturizer/New_Systems/rnas/4L81

>  <Rbt.Executable>
rbdock ($Id: //depot/dev/client3/rdock/2013.1/src/exe/rbdock.cxx#4 $)

>  <Rbt.Library>
libRbt.so (2013.1, Build901 2013/11/27)

>  <Rbt.Parameter_File>
/export/apps/rDock/src/rDock_2013.1_src/data/scripts/dock_solv.prm

>  <Rbt.Receptor>
prm/pocket_docking_3.prm

>  <SCORE>
-7.72121

>  <SCORE.INTER>
-7.50021

>  <SCORE.INTER.CONST>
1

>  <SCORE.INTER.POLAR>
0

>  <SCORE.INTER.ROT>
7

>  <SCORE.INTER.SOLV>
13.7835

>  <SCORE.INTER.VDW>
-17.8613

>  <SCORE.INTER.norm>
-0.277786

>  <SCORE.INTRA>
-0.259072

>  <SCORE.INTRA.DIHEDRAL>
2.02037

>  <SCORE.INTRA.DIHEDRAL.0>
8.34559

>  <SCORE.INTRA.POLAR>
0

>  <SCORE.INTRA.POLAR.0>
0

>  <SCORE.INTRA.REPUL>
0

>  <SCORE.INTRA.REPUL.0>
0

>  <SCORE.INTRA.SOLV>
-0.920534

>  <SCORE.INTRA.SOLV.lig_0>
-48.829

>  <SCORE.INTRA.VDW>
-0.808989

>  <SCORE.INTRA.VDW.0>
-1.77092

>  <SCORE.INTRA.norm>
-0.00959524

>  <SCORE.RESTR>
0.0380804

>  <SCORE.RESTR.CAVITY>
0.0380804

>  <SCORE.RESTR.norm>
0.00141038

>  <SCORE.SYSTEM>
0

>  <SCORE.SYSTEM.CONST>
0

>  <SCORE.SYSTEM.DIHEDRAL>
0

>  <SCORE.SYSTEM.SOLV>
0

>  <SCORE.SYSTEM.norm>
0

>  <SCORE.heavy>
27

>  <SCORE.norm>
-0.285971

>  <RMSD>
5.263

$$$$
ligand
 OpenBabel11021811503D
libRbt.so/2013.1/901 2013/11/27
 27 29  0  0  0  0  0  0  0  0999 V2000
   50.5182  -25.5755 -103.9659 N   0  0  0  0  0  0  0  0  0  0  0  0
   49.0973  -25.2116 -104.0029 C   0  0  2  0  0  0  0  0  0  0  0  0
   48.6941  -24.6134 -102.6716 C   0  0  0  0  0  0  0  0  0  0  0  0
   48.7549  -23.4057 -102.4970 O   0  0  0  0  0  0  0  0  0  0  0  0
   48.2142  -26.4348 -104.2848 C   0  0  0  0  0  0  0  0  0  0  0  0
   46.7570  -26.0251 -104.4442 C   0  0  0  0  0  0  0  0  0  0  0  0
   45.6374  -27.4399 -104.7737 S   0  0  2  0  0  0  0  0  0  0  0  0
   43.9954  -26.6695 -104.9465 C   0  0  0  0  0  0  0  0  0  0  0  0
   45.5202  -27.9743 -103.0680 C   0  0  0  0  0  0  0  0  0  0  0  0
   44.5590  -29.1133 -102.8547 C   0  0  1  0  0  0  0  0  0  0  0  0
   44.9720  -30.2028 -103.6969 O   0  0  0  0  0  0  0  0  0  0  0  0
   44.8456  -29.5243 -101.4666 C   0  0  1  0  0  0  0  0  0  0  0  0
   43.8955  -28.9286 -100.5847 O   0  0  0  0  0  0  0  0  0  0  0  0
   44.6358  -31.0060 -101.5187 C   0  0  1  0  0  0  0  0  0  0  0  0
   43.2492  -31.3253 -101.2807 O   0  0  0  0  0  0  0  0  0  0  0  0
   45.0407  -31.4478 -102.9571 C   0  0  2  0  0  0  0  0  0  0  0  0
   48.2752  -25.3265 -101.7767 O   0  0  0  0  0  0  0  0  0  0  0  0
   50.1545  -31.4990 -101.5273 N   0  0  0  0  0  0  0  0  0  0  0  0
   49.1551  -30.7502 -100.9996 C   0  0  0  0  0  0  0  0  0  0  0  0
   47.8807  -30.8634 -101.4288 N   0  0  0  0  0  0  0  0  0  0  0  0
   47.5748  -31.6650 -102.4620 C   0  0  0  0  0  0  0  0  0  0  0  0
   48.6154  -32.4501 -103.0811 C   0  0  0  0  0  0  0  0  0  0  0  0
   49.9389  -32.3413 -102.5598 C   0  0  0  0  0  0  0  0  0  0  0  0
   50.9795  -33.0709 -103.0980 N   0  0  0  0  0  0  0  0  0  0  0  0
   48.0513  -33.1471 -104.0744 N   0  0  0  0  0  0  0  0  0  0  0  0
   46.7848  -32.8594 -104.1256 C   0  0  0  0  0  0  0  0  0  0  0  0
   46.4300  -31.9563 -103.1508 N   0  0  0  0  0  0  0  0  0  0  0  0
  2  1  1  1  0  0  0
  2  3  1  0  0  0  0
  2  5  1  0  0  0  0
  3  4  1  0  0  0  0
  3 17  1  0  0  0  0
  5  6  1  0  0  0  0
  7  6  1  1  0  0  0
  7  8  1  0  0  0  0
  7  9  1  0  0  0  0
 10  9  1  6  0  0  0
 10 11  1  0  0  0  0
 10 12  1  0  0  0  0
 11 16  1  0  0  0  0
 12 13  1  1  0  0  0
 12 14  1  0  0  0  0
 14 15  1  6  0  0  0
 14 16  1  0  0  0  0
 16 27  1  1  0  0  0
 18 19  2  0  0  0  0
 18 23  1  0  0  0  0
 19 20  1  0  0  0  0
 20 21  2  0  0  0  0
 21 22  1  0  0  0  0
 21 27  1  0  0  0  0
 22 23  2  0  0  0  0
 22 25  1  0  0  0  0
 23 24  1  0  0  0  0
 25 26  2  0  0  0  0
 26 27  1  0  0  0  0
M  END
>  <CHROM.1>
91.79809332,-174.93486114,-179.63975968,-179.04005880,175.39350569,57.03614632
85.36064549,46.98740120,-29.11465416,-102.94440776,-1.48843250,-0.01663805
3.00735613

>  <Name>
ligand

>  <RI>
0

>  <Rbt.Current_Directory>
/home/itssahil/PROJECTS/Mol_Feturizer/New_Systems/rnas/4L81

>  <Rbt.Executable>
rbdock ($Id: //depot/dev/client3/rdock/2013.1/src/exe/rbdock.cxx#4 $)

>  <Rbt.Library>
libRbt.so (2013.1, Build901 2013/11/27)

>  <Rbt.Parameter_File>
/export/apps/rDock/src/rDock_2013.1_src/data/scripts/dock_solv.prm

>  <Rbt.Receptor>
prm/pocket_docking_4.prm

>  <SCORE>
-16.1003

>  <SCORE.INTER>
-12.8241

>  <SCORE.INTER.CONST>
1

>  <SCORE.INTER.POLAR>
0

>  <SCORE.INTER.ROT>
7

>  <SCORE.INTER.SOLV>
14.3299

>  <SCORE.INTER.VDW>
-21.5927

>  <SCORE.INTER.norm>
-0.474968

>  <SCORE.INTRA>
-3.27611

>  <SCORE.INTRA.DIHEDRAL>
-4.55422

>  <SCORE.INTRA.DIHEDRAL.0>
8.34559

>  <SCORE.INTRA.POLAR>
0

>  <SCORE.INTRA.POLAR.0>
0

>  <SCORE.INTRA.REPUL>
0

>  <SCORE.INTRA.REPUL.0>
0

>  <SCORE.INTRA.SOLV>
-1.31565

>  <SCORE.INTRA.SOLV.lig_0>
-48.829

>  <SCORE.INTRA.VDW>
-0.341179

>  <SCORE.INTRA.VDW.0>
-1.77092

>  <SCORE.INTRA.norm>
-0.121337

>  <SCORE.RESTR>
0

>  <SCORE.RESTR.CAVITY>
0

>  <SCORE.RESTR.norm>
0

>  <SCORE.SYSTEM>
0

>  <SCORE.SYSTEM.CONST>
0

>  <SCORE.SYSTEM.DIHEDRAL>
0

>  <SCORE.SYSTEM.SOLV>
0

>  <SCORE.SYSTEM.norm>
0

>  <SCORE.heavy>
27

>  <SCORE.norm>
-0.596306

>  <RMSD>
5.264

$$$$
ligand
 OpenBabel11021811503D
libRbt.so/2013.1/901 2013/11/27
 27 29  0  0  0  0  0  0  0  0999 V2000
   49.1480  -25.2975 -106.9703 N   0  0  0  0  0  0  0  0  0  0  0  0
   48.5781  -26.5354 -107.5140 C   0  0  2  0  0  0  0  0  0  0  0  0
   47.6776  -26.2051 -108.6857 C   0  0  0  0  0  0  0  0  0  0  0  0
   47.6247  -26.9534 -109.6500 O   0  0  0  0  0  0  0  0  0  0  0  0
   47.7590  -27.2858 -106.4551 C   0  0  0  0  0  0  0  0  0  0  0  0
   47.1863  -28.5749 -107.0271 C   0  0  0  0  0  0  0  0  0  0  0  0
   46.6904  -29.7828 -105.7393 S   0  0  2  0  0  0  0  0  0  0  0  0
   45.9704  -31.1631 -106.6859 C   0  0  0  0  0  0  0  0  0  0  0  0
   45.1793  -28.9392 -105.2773 C   0  0  0  0  0  0  0  0  0  0  0  0
   44.6066  -29.3985 -103.9627 C   0  0  1  0  0  0  0  0  0  0  0  0
   44.8567  -30.8090 -103.8413 O   0  0  0  0  0  0  0  0  0  0  0  0
   45.4796  -28.7314 -102.9776 C   0  0  1  0  0  0  0  0  0  0  0  0
   44.8521  -27.5376 -102.5121 O   0  0  0  0  0  0  0  0  0  0  0  0
   45.5466  -29.7384 -101.8714 C   0  0  1  0  0  0  0  0  0  0  0  0
   44.4465  -29.5531 -100.9567 O   0  0  0  0  0  0  0  0  0  0  0  0
   45.4376  -31.1351 -102.5535 C   0  0  2  0  0  0  0  0  0  0  0  0
   46.9750  -25.2098 -108.6621 O   0  0  0  0  0  0  0  0  0  0  0  0
   50.6351  -31.8155 -101.7045 N   0  0  0  0  0  0  0  0  0  0  0  0
   49.8175  -30.8948 -101.1374 C   0  0  0  0  0  0  0  0  0  0  0  0
   48.4964  -30.8548 -101.4099 N   0  0  0  0  0  0  0  0  0  0  0  0
   47.9613  -31.6771 -102.3269 C   0  0  0  0  0  0  0  0  0  0  0  0
   48.8033  -32.6462 -102.9859 C   0  0  0  0  0  0  0  0  0  0  0  0
   50.1834  -32.6909 -102.6273 C   0  0  0  0  0  0  0  0  0  0  0  0
   51.0428  -33.5994 -103.2112 N   0  0  0  0  0  0  0  0  0  0  0  0
   48.0331  -33.3254 -103.8441 N   0  0  0  0  0  0  0  0  0  0  0  0
   46.8199  -32.8635 -103.7790 C   0  0  0  0  0  0  0  0  0  0  0  0
   46.7118  -31.8504 -102.8551 N   0  0  0  0  0  0  0  0  0  0  0  0
  2  1  1  1  0  0  0
  2  3  1  0  0  0  0
  2  5  1  0  0  0  0
  3  4  1  0  0  0  0
  3 17  1  0  0  0  0
  5  6  1  0  0  0  0
  7  6  1  6  0  0  0
  7  8  1  0  0  0  0
  7  9  1  0  0  0  0
 10  9  1  6  0  0  0
 10 11  1  0  0  0  0
 10 12  1  0  0  0  0
 11 16  1  0  0  0  0
 12 13  1  1  0  0  0
 12 14  1  0  0  0  0
 14 15  1  1  0  0  0
 14 16  1  0  0  0  0
 16 27  1  6  0  0  0
 18 19  2  0  0  0  0
 18 23  1  0  0  0  0
 19 20  1  0  0  0  0
 20 21  2  0  0  0  0
 21 22  1  0  0  0  0
 21 27  1  0  0  0  0
 22 23  2  0  0  0  0
 22 25  1  0  0  0  0
 23 24  1  0  0  0  0
 25 26  2  0  0  0  0
 26 27  1  0  0  0  0
M  END
>  <CHROM.1>
143.88413074,-179.38130769,160.70432712,177.04878411,-164.30258085,-35.36581524
133.36002132,47.18701483,-29.74067059,-104.46290659,-1.67547109,-0.43203953
2.28796386

>  <Name>
ligand

>  <RI>
0

>  <Rbt.Current_Directory>
/home/itssahil/PROJECTS/Mol_Feturizer/New_Systems/rnas/4L81

>  <Rbt.Executable>
rbdock ($Id: //depot/dev/client3/rdock/2013.1/src/exe/rbdock.cxx#4 $)

>  <Rbt.Library>
libRbt.so (2013.1, Build901 2013/11/27)

>  <Rbt.Parameter_File>
/export/apps/rDock/src/rDock_2013.1_src/data/scripts/dock_solv.prm

>  <Rbt.Receptor>
prm/pocket_docking_5.prm

>  <SCORE>
-11.2841

>  <SCORE.INTER>
-9.56574

>  <SCORE.INTER.CONST>
1

>  <SCORE.INTER.POLAR>
0

>  <SCORE.INTER.ROT>
7

>  <SCORE.INTER.SOLV>
13.592

>  <SCORE.INTER.VDW>
-19.1745

>  <SCORE.INTER.norm>
-0.354287

>  <SCORE.INTRA>
-1.71836

>  <SCORE.INTRA.DIHEDRAL>
-0.438063

>  <SCORE.INTRA.DIHEDRAL.0>
8.34559

>  <SCORE.INTRA.POLAR>
0

>  <SCORE.INTRA.POLAR.0>
0

>  <SCORE.INTRA.REPUL>
0

>  <SCORE.INTRA.REPUL.0>
0

>  <SCORE.INTRA.SOLV>
-1.03175

>  <SCORE.INTRA.SOLV.lig_0>
-48.829

>  <SCORE.INTRA.VDW>
-0.983454

>  <SCORE.INTRA.VDW.0>
-1.77092

>  <SCORE.INTRA.norm>
-0.063643

>  <SCORE.RESTR>
0

>  <SCORE.RESTR.CAVITY>
0

>  <SCORE.RESTR.norm>
0

>  <SCORE.SYSTEM>
0

>  <SCORE.SYSTEM.CONST>
0

>  <SCORE.SYSTEM.DIHEDRAL>
0

>  <SCORE.SYSTEM.SOLV>
0

>  <SCORE.SYSTEM.norm>
0

>  <SCORE.heavy>
27

>  <SCORE.norm>
-0.417929

>  <RMSD>
5.267

$$$$
ligand
 OpenBabel11021811503D
libRbt.so/2013.1/901 2013/11/27
 27 29  0  0  0  0  0  0  0  0999 V2000
   50.2501  -24.8096 -103.0253 N   0  0  0  0  0  0  0  0  0  0  0  0
   48.8552  -24.5979 -103.4278 C   0  0  2  0  0  0  0  0  0  0  0  0
   48.2309  -23.5360 -102.5472 C   0  0  0  0  0  0  0  0  0  0  0  0
   47.8042  -23.8285 -101.4404 O   0  0  0  0  0  0  0  0  0  0  0  0
   48.0356  -25.8895 -103.3041 C   0  0  0  0  0  0  0  0  0  0  0  0
   46.6308  -25.6943 -103.8569 C   0  0  0  0  0  0  0  0  0  0  0  0
   45.8358  -27.2595 -104.3873 S   0  0  2  0  0  0  0  0  0  0  0  0
   44.1286  -26.7693 -104.7932 C   0  0  0  0  0  0  0  0  0  0  0  0
   45.5627  -27.8893 -102.7328 C   0  0  0  0  0  0  0  0  0  0  0  0
   44.5881  -29.0355 -102.6741 C   0  0  1  0  0  0  0  0  0  0  0  0
   45.0444  -30.0498 -103.5850 O   0  0  0  0  0  0  0  0  0  0  0  0
   44.7960  -29.5690 -101.3140 C   0  0  1  0  0  0  0  0  0  0  0  0
   43.7999  -29.0460 -100.4367 O   0  0  0  0  0  0  0  0  0  0  0  0
   44.5857  -31.0388 -101.5080 C   0  0  1  0  0  0  0  0  0  0  0  0
   43.1871  -31.3673 -101.3758 O   0  0  0  0  0  0  0  0  0  0  0  0
   45.0687  -31.3555 -102.9552 C   0  0  2  0  0  0  0  0  0  0  0  0
   48.1790  -22.3773 -102.9208 O   0  0  0  0  0  0  0  0  0  0  0  0
   50.1312  -31.4376 -101.3544 N   0  0  0  0  0  0  0  0  0  0  0  0
   49.1122  -30.7064 -100.8397 C   0  0  0  0  0  0  0  0  0  0  0  0
   47.8535  -30.8097 -101.3151 N   0  0  0  0  0  0  0  0  0  0  0  0
   47.5852  -31.5818 -102.3807 C   0  0  0  0  0  0  0  0  0  0  0  0
   48.6485  -32.3466 -102.9864 C   0  0  0  0  0  0  0  0  0  0  0  0
   49.9533  -32.2503 -102.4174 C   0  0  0  0  0  0  0  0  0  0  0  0
   51.0137  -32.9619 -102.9407 N   0  0  0  0  0  0  0  0  0  0  0  0
   48.1205  -33.0158 -104.0179 N   0  0  0  0  0  0  0  0  0  0  0  0
   46.8556  -32.7294 -104.1038 C   0  0  0  0  0  0  0  0  0  0  0  0
   46.4653  -31.8554 -103.1161 N   0  0  0  0  0  0  0  0  0  0  0  0
  2  1  1  1  0  0  0
  2  3  1  0  0  0  0
  2  5  1  0  0  0  0
  3  4  1  0  0  0  0
  3 17  1  0  0  0  0
  5  6  1  0  0  0  0
  7  6  1  1  0  0  0
  7  8  1  0  0  0  0
  7  9  1  0  0  0  0
 10  9  1  1  0  0  0
 10 11  1  0  0  0  0
 10 12  1  0  0  0  0
 11 16  1  0  0  0  0
 12 13  1  1  0  0  0
 12 14  1  0  0  0  0
 14 15  1  6  0  0  0
 14 16  1  0  0  0  0
 16 27  1  1  0  0  0
 18 19  2  0  0  0  0
 18 23  1  0  0  0  0
 19 20  1  0  0  0  0
 20 21  2  0  0  0  0
 21 22  1  0  0  0  0
 21 27  1  0  0  0  0
 22 23  2  0  0  0  0
 22 25  1  0  0  0  0
 23 24  1  0  0  0  0
 25 26  2  0  0  0  0
 26 27  1  0  0  0  0
M  END
>  <CHROM.1>
-81.61333737,-174.22165077,156.26674266,173.04563945,164.81821994,54.24652430
81.71565718,46.92542137,-28.85142028,-102.73235210,-1.52079747,0.00010051
3.06977430

>  <Name>
ligand

>  <RI>
0

>  <Rbt.Current_Directory>
/home/itssahil/PROJECTS/Mol_Feturizer/New_Systems/rnas/4L81

>  <Rbt.Executable>
rbdock ($Id: //depot/dev/client3/rdock/2013.1/src/exe/rbdock.cxx#4 $)

>  <Rbt.Library>
libRbt.so (2013.1, Build901 2013/11/27)

>  <Rbt.Parameter_File>
/export/apps/rDock/src/rDock_2013.1_src/data/scripts/dock_solv.prm

>  <Rbt.Receptor>
prm/pocket_docking_7.prm

>  <SCORE>
-17.6016

>  <SCORE.INTER>
-15.3744

>  <SCORE.INTER.CONST>
1

>  <SCORE.INTER.POLAR>
0

>  <SCORE.INTER.ROT>
7

>  <SCORE.INTER.SOLV>
16.313

>  <SCORE.INTER.VDW>
-23.9539

>  <SCORE.INTER.norm>
-0.569421

>  <SCORE.INTRA>
-2.22725

>  <SCORE.INTRA.DIHEDRAL>
-2.84713

>  <SCORE.INTRA.DIHEDRAL.0>
8.34559

>  <SCORE.INTRA.POLAR>
0

>  <SCORE.INTRA.POLAR.0>
0

>  <SCORE.INTRA.REPUL>
0

>  <SCORE.INTRA.REPUL.0>
0

>  <SCORE.INTRA.SOLV>
-1.26985

>  <SCORE.INTRA.SOLV.lig_0>
-48.829

>  <SCORE.INTRA.VDW>
-0.168764

>  <SCORE.INTRA.VDW.0>
-1.77092

>  <SCORE.INTRA.norm>
-0.0824909

>  <SCORE.RESTR>
0

>  <SCORE.RESTR.CAVITY>
0

>  <SCORE.RESTR.norm>
0

>  <SCORE.SYSTEM>
0

>  <SCORE.SYSTEM.CONST>
0

>  <SCORE.SYSTEM.DIHEDRAL>
0

>  <SCORE.SYSTEM.SOLV>
0

>  <SCORE.SYSTEM.norm>
0

>  <SCORE.heavy>
27

>  <SCORE.norm>
-0.651911

>  <RMSD>
5.285

$$$$
ligand
 OpenBabel11021811503D
libRbt.so/2013.1/901 2013/11/27
 27 29  0  0  0  0  0  0  0  0999 V2000
   47.5546  -27.0354 -104.2697 N   0  0  0  0  0  0  0  0  0  0  0  0
   47.2736  -26.5439 -102.9161 C   0  0  2  0  0  0  0  0  0  0  0  0
   48.3895  -25.6220 -102.4716 C   0  0  0  0  0  0  0  0  0  0  0  0
   48.1312  -24.5892 -101.8722 O   0  0  0  0  0  0  0  0  0  0  0  0
   47.1573  -27.7008 -101.9144 C   0  0  0  0  0  0  0  0  0  0  0  0
   45.8338  -28.4331 -102.0843 C   0  0  0  0  0  0  0  0  0  0  0  0
   45.6898  -29.9260 -101.0289 S   0  0  2  0  0  0  0  0  0  0  0  0
   46.4555  -29.4254  -99.4533 C   0  0  0  0  0  0  0  0  0  0  0  0
   47.0797  -30.7916 -101.7555 C   0  0  0  0  0  0  0  0  0  0  0  0
   46.6887  -31.7721 -102.8290 C   0  0  1  0  0  0  0  0  0  0  0  0
   45.6488  -31.1705 -103.6186 O   0  0  0  0  0  0  0  0  0  0  0  0
   47.8916  -31.8156 -103.6827 C   0  0  1  0  0  0  0  0  0  0  0  0
   48.6869  -32.9471 -103.3327 O   0  0  0  0  0  0  0  0  0  0  0  0
   47.3107  -32.0023 -105.0500 C   0  0  1  0  0  0  0  0  0  0  0  0
   47.1176  -33.4051 -105.3260 O   0  0  0  0  0  0  0  0  0  0  0  0
   45.9343  -31.2718 -105.0365 C   0  0  2  0  0  0  0  0  0  0  0  0
   49.5533  -25.9182 -102.6781 O   0  0  0  0  0  0  0  0  0  0  0  0
   48.0366  -27.4305 -108.0403 N   0  0  0  0  0  0  0  0  0  0  0  0
   48.5172  -28.6826 -107.8420 C   0  0  0  0  0  0  0  0  0  0  0  0
   47.8597  -29.5832 -107.0821 N   0  0  0  0  0  0  0  0  0  0  0  0
   46.7436  -29.2364 -106.4208 C   0  0  0  0  0  0  0  0  0  0  0  0
   46.2185  -27.9006 -106.5702 C   0  0  0  0  0  0  0  0  0  0  0  0
   46.9149  -26.9972 -107.4271 C   0  0  0  0  0  0  0  0  0  0  0  0
   46.4625  -25.7081 -107.6230 N   0  0  0  0  0  0  0  0  0  0  0  0
   45.1193  -27.8171 -105.8114 N   0  0  0  0  0  0  0  0  0  0  0  0
   44.9312  -28.9562 -105.2144 C   0  0  0  0  0  0  0  0  0  0  0  0
   45.8968  -29.8739 -105.5567 N   0  0  0  0  0  0  0  0  0  0  0  0
  2  1  1  6  0  0  0
  2  3  1  0  0  0  0
  2  5  1  0  0  0  0
  3  4  1  0  0  0  0
  3 17  1  0  0  0  0
  5  6  1  0  0  0  0
  7  6  1  6  0  0  0
  7  8  1  0  0  0  0
  7  9  1  0  0  0  0
 10  9  1  1  0  0  0
 10 11  1  0  0  0  0
 10 12  1  0  0  0  0
 11 16  1  0  0  0  0
 12 13  1  1  0  0  0
 12 14  1  0  0  0  0
 14 15  1  1  0  0  0
 14 16  1  0  0  0  0
 16 27  1  1  0  0  0
 18 19  2  0  0  0  0
 18 23  1  0  0  0  0
 19 20  1  0  0  0  0
 20 21  2  0  0  0  0
 21 22  1  0  0  0  0
 21 27  1  0  0  0  0
 22 23  2  0  0  0  0
 22 25  1  0  0  0  0
 23 24  1  0  0  0  0
 25 26  2  0  0  0  0
 26 27  1  0  0  0  0
M  END
>  <CHROM.1>
138.30797803,-74.87055754,174.55738784,39.32133170,-96.32556586,40.33229449
136.27532736,46.96374325,-29.05596665,-104.09388041,-0.51045086,1.44101016
1.39838068

>  <Name>
ligand

>  <RI>
0

>  <Rbt.Current_Directory>
/home/itssahil/PROJECTS/Mol_Feturizer/New_Systems/rnas/4L81

>  <Rbt.Executable>
rbdock ($Id: //depot/dev/client3/rdock/2013.1/src/exe/rbdock.cxx#4 $)

>  <Rbt.Library>
libRbt.so (2013.1, Build901 2013/11/27)

>  <Rbt.Parameter_File>
/export/apps/rDock/src/rDock_2013.1_src/data/scripts/dock_solv.prm

>  <Rbt.Receptor>
prm/pocket_docking_5.prm

>  <SCORE>
-10.6567

>  <SCORE.INTER>
-10.8426

>  <SCORE.INTER.CONST>
1

>  <SCORE.INTER.POLAR>
0

>  <SCORE.INTER.ROT>
7

>  <SCORE.INTER.SOLV>
10.302

>  <SCORE.INTER.VDW>
-18.9291

>  <SCORE.INTER.norm>
-0.401578

>  <SCORE.INTRA>
0.185885

>  <SCORE.INTRA.DIHEDRAL>
-0.565453

>  <SCORE.INTRA.DIHEDRAL.0>
8.34559

>  <SCORE.INTRA.POLAR>
0

>  <SCORE.INTRA.POLAR.0>
0

>  <SCORE.INTRA.REPUL>
0

>  <SCORE.INTRA.REPUL.0>
0

>  <SCORE.INTRA.SOLV>
3.29997

>  <SCORE.INTRA.SOLV.lig_0>
-48.829

>  <SCORE.INTRA.VDW>
-1.18137

>  <SCORE.INTRA.VDW.0>
-1.77092

>  <SCORE.INTRA.norm>
0.00688464

>  <SCORE.RESTR>
0

>  <SCORE.RESTR.CAVITY>
0

>  <SCORE.RESTR.norm>
0

>  <SCORE.SYSTEM>
0

>  <SCORE.SYSTEM.CONST>
0

>  <SCORE.SYSTEM.DIHEDRAL>
0

>  <SCORE.SYSTEM.SOLV>
0

>  <SCORE.SYSTEM.norm>
0

>  <SCORE.heavy>
27

>  <SCORE.norm>
-0.394693

>  <RMSD>
5.292

$$$$
ligand
 OpenBabel11021811503D
libRbt.so/2013.1/901 2013/11/27
 27 29  0  0  0  0  0  0  0  0999 V2000
   46.8546  -30.5002 -107.4318 N   0  0  0  0  0  0  0  0  0  0  0  0
   45.7074  -30.7150 -106.5426 C   0  0  2  0  0  0  0  0  0  0  0  0
   45.3820  -29.4263 -105.8174 C   0  0  0  0  0  0  0  0  0  0  0  0
   44.2587  -29.2362 -105.3762 O   0  0  0  0  0  0  0  0  0  0  0  0
   46.0011  -31.8073 -105.5052 C   0  0  0  0  0  0  0  0  0  0  0  0
   47.4057  -31.6528 -104.9394 C   0  0  0  0  0  0  0  0  0  0  0  0
   47.5306  -30.3520 -103.6526 S   0  0  2  0  0  0  0  0  0  0  0  0
   49.3095  -30.2881 -103.2641 C   0  0  0  0  0  0  0  0  0  0  0  0
   46.9832  -31.3890 -102.2984 C   0  0  0  0  0  0  0  0  0  0  0  0
   45.6982  -30.9281 -101.6635 C   0  0  1  0  0  0  0  0  0  0  0  0
   45.8581  -29.5475 -101.2956 O   0  0  0  0  0  0  0  0  0  0  0  0
   44.7500  -30.9538 -102.7940 C   0  0  1  0  0  0  0  0  0  0  0  0
   44.0008  -32.1676 -102.7634 O   0  0  0  0  0  0  0  0  0  0  0  0
   43.8547  -29.7925 -102.4909 C   0  0  1  0  0  0  0  0  0  0  0  0
   42.7723  -30.2044 -101.6306 O   0  0  0  0  0  0  0  0  0  0  0  0
   44.7434  -28.7437 -101.7573 C   0  0  2  0  0  0  0  0  0  0  0  0
   46.2446  -28.5842 -105.6392 O   0  0  0  0  0  0  0  0  0  0  0  0
   48.9893  -25.9367 -103.2709 N   0  0  0  0  0  0  0  0  0  0  0  0
   48.9385  -26.9269 -102.3463 C   0  0  0  0  0  0  0  0  0  0  0  0
   47.7955  -27.5941 -102.0828 N   0  0  0  0  0  0  0  0  0  0  0  0
   46.6423  -27.2355 -102.6702 C   0  0  0  0  0  0  0  0  0  0  0  0
   46.6423  -26.1589 -103.6312 C   0  0  0  0  0  0  0  0  0  0  0  0
   47.8831  -25.5173 -103.9209 C   0  0  0  0  0  0  0  0  0  0  0  0
   47.9567  -24.4873 -104.8366 N   0  0  0  0  0  0  0  0  0  0  0  0
   45.3827  -26.0034 -104.0555 N   0  0  0  0  0  0  0  0  0  0  0  0
   44.6229  -26.8646 -103.4468 C   0  0  0  0  0  0  0  0  0  0  0  0
   45.3444  -27.6577 -102.5853 N   0  0  0  0  0  0  0  0  0  0  0  0
  2  1  1  6  0  0  0
  2  3  1  0  0  0  0
  2  5  1  0  0  0  0
  3  4  1  0  0  0  0
  3 17  1  0  0  0  0
  5  6  1  0  0  0  0
  7  6  1  6  0  0  0
  7  8  1  0  0  0  0
  7  9  1  0  0  0  0
 10  9  1  6  0  0  0
 10 11  1  0  0  0  0
 10 12  1  0  0  0  0
 11 16  1  0  0  0  0
 12 13  1  1  0  0  0
 12 14  1  0  0  0  0
 14 15  1  1  0  0  0
 14 16  1  0  0  0  0
 16 27  1  6  0  0  0
 18 19  2  0  0  0  0
 18 23  1  0  0  0  0
 19 20  1  0  0  0  0
 20 21  2  0  0  0  0
 21 22  1  0  0  0  0
 21 27  1  0  0  0  0
 22 23  2  0  0  0  0
 22 25  1  0  0  0  0
 23 24  1  0  0  0  0
 25 26  2  0  0  0  0
 26 27  1  0  0  0  0
M  END
>  <CHROM.1>
156.48958808,42.61560262,79.38031328,-175.38974577,-117.10567547,-53.35741333
-15.28715470,46.23605256,-29.05212989,-103.61906268,-2.27168452,0.82839524
0.55121325

>  <Name>
ligand

>  <RI>
0

>  <Rbt.Current_Directory>
/home/itssahil/PROJECTS/Mol_Feturizer/New_Systems/rnas/4L81

>  <Rbt.Executable>
rbdock ($Id: //depot/dev/client3/rdock/2013.1/src/exe/rbdock.cxx#4 $)

>  <Rbt.Library>
libRbt.so (2013.1, Build901 2013/11/27)

>  <Rbt.Parameter_File>
/export/apps/rDock/src/rDock_2013.1_src/data/scripts/dock_solv.prm

>  <Rbt.Receptor>
prm/pocket_docking_6.prm

>  <SCORE>
-12.6986

>  <SCORE.INTER>
-9.75161

>  <SCORE.INTER.CONST>
1

>  <SCORE.INTER.POLAR>
0

>  <SCORE.INTER.ROT>
7

>  <SCORE.INTER.SOLV>
10.394

>  <SCORE.INTER.VDW>
-18.2324

>  <SCORE.INTER.norm>
-0.361171

>  <SCORE.INTRA>
-2.94702

>  <SCORE.INTRA.DIHEDRAL>
2.14035

>  <SCORE.INTRA.DIHEDRAL.0>
8.34559

>  <SCORE.INTRA.POLAR>
0

>  <SCORE.INTRA.POLAR.0>
0

>  <SCORE.INTRA.REPUL>
0

>  <SCORE.INTRA.REPUL.0>
0

>  <SCORE.INTRA.SOLV>
0.890036

>  <SCORE.INTRA.SOLV.lig_0>
-48.829

>  <SCORE.INTRA.VDW>
-4.46222

>  <SCORE.INTRA.VDW.0>
-1.77092

>  <SCORE.INTRA.norm>
-0.109149

>  <SCORE.RESTR>
0

>  <SCORE.RESTR.CAVITY>
0

>  <SCORE.RESTR.norm>
0

>  <SCORE.SYSTEM>
0

>  <SCORE.SYSTEM.CONST>
0

>  <SCORE.SYSTEM.DIHEDRAL>
0

>  <SCORE.SYSTEM.SOLV>
0

>  <SCORE.SYSTEM.norm>
0

>  <SCORE.heavy>
27

>  <SCORE.norm>
-0.47032

>  <RMSD>
5.304

$$$$
ligand
 OpenBabel11021811503D
libRbt.so/2013.1/901 2013/11/27
 27 29  0  0  0  0  0  0  0  0999 V2000
   49.8043  -28.0278 -105.4142 N   0  0  0  0  0  0  0  0  0  0  0  0
   49.1872  -26.8885 -106.1025 C   0  0  2  0  0  0  0  0  0  0  0  0
   49.9322  -25.6193 -105.7465 C   0  0  0  0  0  0  0  0  0  0  0  0
   49.8615  -24.6406 -106.4745 O   0  0  0  0  0  0  0  0  0  0  0  0
   47.7137  -26.7267 -105.7050 C   0  0  0  0  0  0  0  0  0  0  0  0
   46.8699  -27.8535 -106.2841 C   0  0  0  0  0  0  0  0  0  0  0  0
   45.1581  -27.8896 -105.6270 S   0  0  2  0  0  0  0  0  0  0  0  0
   44.7202  -26.1304 -105.4455 C   0  0  0  0  0  0  0  0  0  0  0  0
   45.6255  -28.2400 -103.9336 C   0  0  0  0  0  0  0  0  0  0  0  0
   44.7621  -29.2794 -103.2695 C   0  0  1  0  0  0  0  0  0  0  0  0
   45.0754  -30.5539 -103.8565 O   0  0  0  0  0  0  0  0  0  0  0  0
   45.2922  -29.3102 -101.8927 C   0  0  1  0  0  0  0  0  0  0  0  0
   44.4772  -28.4999 -101.0473 O   0  0  0  0  0  0  0  0  0  0  0  0
   45.1396  -30.7524 -101.5201 C   0  0  1  0  0  0  0  0  0  0  0  0
   43.8265  -30.9934 -100.9733 O   0  0  0  0  0  0  0  0  0  0  0  0
   45.3185  -31.5596 -102.8409 C   0  0  2  0  0  0  0  0  0  0  0  0
   50.5800  -25.5526 -104.7166 O   0  0  0  0  0  0  0  0  0  0  0  0
   50.5006  -31.8208 -101.7111 N   0  0  0  0  0  0  0  0  0  0  0  0
   49.5585  -31.0584 -101.1035 C   0  0  0  0  0  0  0  0  0  0  0  0
   48.2587  -31.1168 -101.4617 N   0  0  0  0  0  0  0  0  0  0  0  0
   47.8679  -31.8736 -102.5000 C   0  0  0  0  0  0  0  0  0  0  0  0
   48.8447  -32.6705 -103.2023 C   0  0  0  0  0  0  0  0  0  0  0  0
   50.1986  -32.6213 -102.7552 C   0  0  0  0  0  0  0  0  0  0  0  0
   51.1818  -33.3654 -103.3751 N   0  0  0  0  0  0  0  0  0  0  0  0
   48.2020  -33.3160 -104.1827 N   0  0  0  0  0  0  0  0  0  0  0  0
   46.9450  -32.9866 -104.1516 C   0  0  0  0  0  0  0  0  0  0  0  0
   46.6767  -32.1054 -103.1303 N   0  0  0  0  0  0  0  0  0  0  0  0
  2  1  1  1  0  0  0
  2  3  1  0  0  0  0
  2  5  1  0  0  0  0
  3  4  1  0  0  0  0
  3 17  1  0  0  0  0
  5  6  1  0  0  0  0
  7  6  1  6  0  0  0
  7  8  1  0  0  0  0
  7  9  1  0  0  0  0
 10  9  1  6  0  0  0
 10 11  1  0  0  0  0
 10 12  1  0  0  0  0
 11 16  1  0  0  0  0
 12 13  1  1  0  0  0
 12 14  1  0  0  0  0
 14 15  1  6  0  0  0
 14 16  1  0  0  0  0
 16 27  1  6  0  0  0
 18 19  2  0  0  0  0
 18 23  1  0  0  0  0
 19 20  1  0  0  0  0
 20 21  2  0  0  0  0
 21 22  1  0  0  0  0
 21 27  1  0  0  0  0
 22 23  2  0  0  0  0
 22 25  1  0  0  0  0
 23 24  1  0  0  0  0
 25 26  2  0  0  0  0
 26 27  1  0  0  0  0
M  END
>  <CHROM.1>
158.49338628,-70.34982822,170.33670442,36.68361182,-137.07493186,71.30889150
103.93768980,47.30948288,-29.50599908,-103.75496013,-1.47528568,-0.18863154
2.63570557

>  <Name>
ligand

>  <RI>
0

>  <Rbt.Current_Directory>
/home/itssahil/PROJECTS/Mol_Feturizer/New_Systems/rnas/4L81

>  <Rbt.Executable>
rbdock ($Id: //depot/dev/client3/rdock/2013.1/src/exe/rbdock.cxx#4 $)

>  <Rbt.Library>
libRbt.so (2013.1, Build901 2013/11/27)

>  <Rbt.Parameter_File>
/export/apps/rDock/src/rDock_2013.1_src/data/scripts/dock_solv.prm

>  <Rbt.Receptor>
prm/pocket_docking_5.prm

>  <SCORE>
-11.0889

>  <SCORE.INTER>
-11.5318

>  <SCORE.INTER.CONST>
1

>  <SCORE.INTER.POLAR>
0

>  <SCORE.INTER.ROT>
7

>  <SCORE.INTER.SOLV>
15.0044

>  <SCORE.INTER.VDW>
-20.956

>  <SCORE.INTER.norm>
-0.427102

>  <SCORE.INTRA>
0.442842

>  <SCORE.INTRA.DIHEDRAL>
0.759091

>  <SCORE.INTRA.DIHEDRAL.0>
8.34559

>  <SCORE.INTRA.POLAR>
0

>  <SCORE.INTRA.POLAR.0>
0

>  <SCORE.INTRA.REPUL>
0

>  <SCORE.INTRA.REPUL.0>
0

>  <SCORE.INTRA.SOLV>
-0.552376

>  <SCORE.INTRA.SOLV.lig_0>
-48.829

>  <SCORE.INTRA.VDW>
0.339484

>  <SCORE.INTRA.VDW.0>
-1.77092

>  <SCORE.INTRA.norm>
0.0164015

>  <SCORE.RESTR>
0

>  <SCORE.RESTR.CAVITY>
0

>  <SCORE.RESTR.norm>
0

>  <SCORE.SYSTEM>
0

>  <SCORE.SYSTEM.CONST>
0

>  <SCORE.SYSTEM.DIHEDRAL>
0

>  <SCORE.SYSTEM.SOLV>
0

>  <SCORE.SYSTEM.norm>
0

>  <SCORE.heavy>
27

>  <SCORE.norm>
-0.410701

>  <RMSD>
5.317

$$$$
ligand
 OpenBabel11021811503D
libRbt.so/2013.1/901 2013/11/27
 27 29  0  0  0  0  0  0  0  0999 V2000
   49.7147  -27.4036 -105.2092 N   0  0  0  0  0  0  0  0  0  0  0  0
   48.9716  -27.2510 -103.9533 C   0  0  2  0  0  0  0  0  0  0  0  0
   49.4445  -26.0049 -103.2346 C   0  0  0  0  0  0  0  0  0  0  0  0
   48.6848  -25.3954 -102.4969 O   0  0  0  0  0  0  0  0  0  0  0  0
   49.1754  -28.4619 -103.0326 C   0  0  0  0  0  0  0  0  0  0  0  0
   48.0788  -29.4955 -103.2470 C   0  0  0  0  0  0  0  0  0  0  0  0
   48.2567  -30.9747 -102.1776 S   0  0  2  0  0  0  0  0  0  0  0  0
   49.4232  -32.0374 -103.0884 C   0  0  0  0  0  0  0  0  0  0  0  0
   46.7203  -31.7447 -102.6827 C   0  0  0  0  0  0  0  0  0  0  0  0
   45.5246  -31.2887 -101.8894 C   0  0  1  0  0  0  0  0  0  0  0  0
   45.6887  -29.8881 -101.6096 O   0  0  0  0  0  0  0  0  0  0  0  0
   44.4257  -31.3948 -102.8687 C   0  0  1  0  0  0  0  0  0  0  0  0
   43.7300  -32.6255 -102.6767 O   0  0  0  0  0  0  0  0  0  0  0  0
   43.5442  -30.2449 -102.4906 C   0  0  1  0  0  0  0  0  0  0  0  0
   42.6108  -30.6440 -101.4655 O   0  0  0  0  0  0  0  0  0  0  0  0
   44.4928  -29.1381 -101.9400 C   0  0  2  0  0  0  0  0  0  0  0  0
   50.5937  -25.6194 -103.3598 O   0  0  0  0  0  0  0  0  0  0  0  0
   45.0044  -27.3613 -106.9179 N   0  0  0  0  0  0  0  0  0  0  0  0
   44.5093  -28.5566 -106.5126 C   0  0  0  0  0  0  0  0  0  0  0  0
   44.3940  -28.8706 -105.2053 N   0  0  0  0  0  0  0  0  0  0  0  0
   44.8521  -28.0365 -104.2577 C   0  0  0  0  0  0  0  0  0  0  0  0
   45.4248  -26.7702 -104.6461 C   0  0  0  0  0  0  0  0  0  0  0  0
   45.4767  -26.4547 -106.0364 C   0  0  0  0  0  0  0  0  0  0  0  0
   46.0024  -25.2571 -106.4768 N   0  0  0  0  0  0  0  0  0  0  0  0
   45.8020  -26.1429 -103.5257 N   0  0  0  0  0  0  0  0  0  0  0  0
   45.5261  -26.8992 -102.5053 C   0  0  0  0  0  0  0  0  0  0  0  0
   44.9319  -28.0774 -102.8931 N   0  0  0  0  0  0  0  0  0  0  0  0
  2  1  1  6  0  0  0
  2  3  1  0  0  0  0
  2  5  1  0  0  0  0
  3  4  1  0  0  0  0
  3 17  1  0  0  0  0
  5  6  1  0  0  0  0
  7  6  1  6  0  0  0
  7  8  1  0  0  0  0
  7  9  1  0  0  0  0
 10  9  1  6  0  0  0
 10 11  1  0  0  0  0
 10 12  1  0  0  0  0
 11 16  1  0  0  0  0
 12 13  1  1  0  0  0
 12 14  1  0  0  0  0
 14 15  1  1  0  0  0
 14 16  1  0  0  0  0
 16 27  1  6  0  0  0
 18 19  2  0  0  0  0
 18 23  1  0  0  0  0
 19 20  1  0  0  0  0
 20 21  2  0  0  0  0
 21 22  1  0  0  0  0
 21 27  1  0  0  0  0
 22 23  2  0  0  0  0
 22 25  1  0  0  0  0
 23 24  1  0  0  0  0
 25 26  2  0  0  0  0
 26 27  1  0  0  0  0
M  END
>  <CHROM.1>
151.45832935,-92.90714166,-179.98190832,-84.19797219,-86.60852293,37.08191224
99.15014223,46.45505440,-28.74867614,-103.45512925,-0.93318327,0.20539969
2.62617847

>  <Name>
ligand

>  <RI>
0

>  <Rbt.Current_Directory>
/home/itssahil/PROJECTS/Mol_Feturizer/New_Systems/rnas/4L81

>  <Rbt.Executable>
rbdock ($Id: //depot/dev/client3/rdock/2013.1/src/exe/rbdock.cxx#4 $)

>  <Rbt.Library>
libRbt.so (2013.1, Build901 2013/11/27)

>  <Rbt.Parameter_File>
/export/apps/rDock/src/rDock_2013.1_src/data/scripts/dock_solv.prm

>  <Rbt.Receptor>
prm/pocket_docking_2.prm

>  <SCORE>
-7.243

>  <SCORE.INTER>
-5.70298

>  <SCORE.INTER.CONST>
1

>  <SCORE.INTER.POLAR>
0

>  <SCORE.INTER.ROT>
7

>  <SCORE.INTER.SOLV>
13.8121

>  <SCORE.INTER.VDW>
-16.6727

>  <SCORE.INTER.norm>
-0.211222

>  <SCORE.INTRA>
-2.61109

>  <SCORE.INTRA.DIHEDRAL>
1.39974

>  <SCORE.INTRA.DIHEDRAL.0>
8.34559

>  <SCORE.INTRA.POLAR>
0

>  <SCORE.INTRA.POLAR.0>
0

>  <SCORE.INTRA.REPUL>
0

>  <SCORE.INTRA.REPUL.0>
0

>  <SCORE.INTRA.SOLV>
-0.436255

>  <SCORE.INTRA.SOLV.lig_0>
-48.829

>  <SCORE.INTRA.VDW>
-3.09283

>  <SCORE.INTRA.VDW.0>
-1.77092

>  <SCORE.INTRA.norm>
-0.096707

>  <SCORE.RESTR>
1.07107

>  <SCORE.RESTR.CAVITY>
1.07107

>  <SCORE.RESTR.norm>
0.0396694

>  <SCORE.SYSTEM>
0

>  <SCORE.SYSTEM.CONST>
0

>  <SCORE.SYSTEM.DIHEDRAL>
0

>  <SCORE.SYSTEM.SOLV>
0

>  <SCORE.SYSTEM.norm>
0

>  <SCORE.heavy>
27

>  <SCORE.norm>
-0.268259

>  <RMSD>
5.326

$$$$
ligand
 OpenBabel11021811503D
libRbt.so/2013.1/901 2013/11/27
 27 29  0  0  0  0  0  0  0  0999 V2000
   49.3297  -28.1905 -104.0088 N   0  0  0  0  0  0  0  0  0  0  0  0
   48.7205  -26.9160 -104.4051 C   0  0  2  0  0  0  0  0  0  0  0  0
   49.1852  -25.8209 -103.4683 C   0  0  0  0  0  0  0  0  0  0  0  0
   48.9960  -25.9202 -102.2653 O   0  0  0  0  0  0  0  0  0  0  0  0
   47.1882  -26.9907 -104.3593 C   0  0  0  0  0  0  0  0  0  0  0  0
   46.6616  -27.9554 -105.4123 C   0  0  0  0  0  0  0  0  0  0  0  0
   44.8310  -27.9847 -105.5188 S   0  0  2  0  0  0  0  0  0  0  0  0
   44.3496  -26.2432 -105.2848 C   0  0  0  0  0  0  0  0  0  0  0  0
   44.5657  -28.5774 -103.8493 C   0  0  0  0  0  0  0  0  0  0  0  0
   44.0075  -29.9742 -103.7838 C   0  0  1  0  0  0  0  0  0  0  0  0
   45.0071  -30.8732 -104.2935 O   0  0  0  0  0  0  0  0  0  0  0  0
   43.9221  -30.2219 -102.3316 C   0  0  1  0  0  0  0  0  0  0  0  0
   42.5920  -29.9720 -101.8803 O   0  0  0  0  0  0  0  0  0  0  0  0
   44.2284  -31.6844 -102.2349 C   0  0  1  0  0  0  0  0  0  0  0  0
   43.0232  -32.4612 -102.3940 O   0  0  0  0  0  0  0  0  0  0  0  0
   45.2155  -31.9955 -103.3997 C   0  0  2  0  0  0  0  0  0  0  0  0
   49.7797  -24.8496 -103.9017 O   0  0  0  0  0  0  0  0  0  0  0  0
   49.2399  -30.4045 -100.3222 N   0  0  0  0  0  0  0  0  0  0  0  0
   47.9306  -30.0712 -100.2103 C   0  0  0  0  0  0  0  0  0  0  0  0
   46.9950  -30.5815 -101.0381 N   0  0  0  0  0  0  0  0  0  0  0  0
   47.3469  -31.3741 -102.0635 C   0  0  0  0  0  0  0  0  0  0  0  0
   48.7356  -31.7220 -102.2451 C   0  0  0  0  0  0  0  0  0  0  0  0
   49.6847  -31.2049 -101.3139 C   0  0  0  0  0  0  0  0  0  0  0  0
   51.0273  -31.5056 -101.4229 N   0  0  0  0  0  0  0  0  0  0  0  0
   48.8119  -32.5060 -103.3269 N   0  0  0  0  0  0  0  0  0  0  0  0
   47.6197  -32.6604 -103.8212 C   0  0  0  0  0  0  0  0  0  0  0  0
   46.6731  -31.9920 -103.0805 N   0  0  0  0  0  0  0  0  0  0  0  0
  2  1  1  1  0  0  0
  2  3  1  0  0  0  0
  2  5  1  0  0  0  0
  3  4  1  0  0  0  0
  3 17  1  0  0  0  0
  5  6  1  0  0  0  0
  7  6  1  1  0  0  0
  7  8  1  0  0  0  0
  7  9  1  0  0  0  0
 10  9  1  1  0  0  0
 10 11  1  0  0  0  0
 10 12  1  0  0  0  0
 11 16  1  0  0  0  0
 12 13  1  6  0  0  0
 12 14  1  0  0  0  0
 14 15  1  6  0  0  0
 14 16  1  0  0  0  0
 16 27  1  1  0  0  0
 18 19  2  0  0  0  0
 18 23  1  0  0  0  0
 19 20  1  0  0  0  0
 20 21  2  0  0  0  0
 21 22  1  0  0  0  0
 21 27  1  0  0  0  0
 22 23  2  0  0  0  0
 22 25  1  0  0  0  0
 23 24  1  0  0  0  0
 25 26  2  0  0  0  0
 26 27  1  0  0  0  0
M  END
>  <CHROM.1>
-57.31040268,-66.31902948,-174.84991375,38.38869695,-112.08471910,66.31410275
90.46828523,46.72348344,-29.51437664,-103.16622493,-0.85089383,0.27555401
2.70934986

>  <Name>
ligand

>  <RI>
0

>  <Rbt.Current_Directory>
/home/itssahil/PROJECTS/Mol_Feturizer/New_Systems/rnas/4L81

>  <Rbt.Executable>
rbdock ($Id: //depot/dev/client3/rdock/2013.1/src/exe/rbdock.cxx#4 $)

>  <Rbt.Library>
libRbt.so (2013.1, Build901 2013/11/27)

>  <Rbt.Parameter_File>
/export/apps/rDock/src/rDock_2013.1_src/data/scripts/dock_solv.prm

>  <Rbt.Receptor>
prm/pocket_docking_3.prm

>  <SCORE>
-12.5213

>  <SCORE.INTER>
-11.5224

>  <SCORE.INTER.CONST>
1

>  <SCORE.INTER.POLAR>
0

>  <SCORE.INTER.ROT>
7

>  <SCORE.INTER.SOLV>
14.9433

>  <SCORE.INTER.VDW>
-20.9293

>  <SCORE.INTER.norm>
-0.426754

>  <SCORE.INTRA>
-0.998943

>  <SCORE.INTRA.DIHEDRAL>
-0.501399

>  <SCORE.INTRA.DIHEDRAL.0>
8.34559

>  <SCORE.INTRA.POLAR>
0

>  <SCORE.INTRA.POLAR.0>
0

>  <SCORE.INTRA.REPUL>
0

>  <SCORE.INTRA.REPUL.0>
0

>  <SCORE.INTRA.SOLV>
-0.636466

>  <SCORE.INTRA.SOLV.lig_0>
-48.829

>  <SCORE.INTRA.VDW>
-0.43001

>  <SCORE.INTRA.VDW.0>
-1.77092

>  <SCORE.INTRA.norm>
-0.0369979

>  <SCORE.RESTR>
0

>  <SCORE.RESTR.CAVITY>
0

>  <SCORE.RESTR.norm>
0

>  <SCORE.SYSTEM>
0

>  <SCORE.SYSTEM.CONST>
0

>  <SCORE.SYSTEM.DIHEDRAL>
0

>  <SCORE.SYSTEM.SOLV>
0

>  <SCORE.SYSTEM.norm>
0

>  <SCORE.heavy>
27

>  <SCORE.norm>
-0.463752

>  <RMSD>
5.330

$$$$
ligand
 OpenBabel11021811503D
libRbt.so/2013.1/901 2013/11/27
 27 29  0  0  0  0  0  0  0  0999 V2000
   48.5622  -22.6675 -105.0504 N   0  0  0  0  0  0  0  0  0  0  0  0
   47.7546  -23.4204 -104.0842 C   0  0  2  0  0  0  0  0  0  0  0  0
   48.5601  -23.6503 -102.8228 C   0  0  0  0  0  0  0  0  0  0  0  0
   49.7418  -23.9520 -102.8948 O   0  0  0  0  0  0  0  0  0  0  0  0
   47.3255  -24.7796 -104.6532 C   0  0  0  0  0  0  0  0  0  0  0  0
   46.5646  -25.5869 -103.6110 C   0  0  0  0  0  0  0  0  0  0  0  0
   45.9122  -27.1744 -104.2573 S   0  0  2  0  0  0  0  0  0  0  0  0
   44.2077  -26.7756 -104.7623 C   0  0  0  0  0  0  0  0  0  0  0  0
   45.5702  -27.8922 -102.6521 C   0  0  0  0  0  0  0  0  0  0  0  0
   44.5766  -29.0227 -102.6932 C   0  0  1  0  0  0  0  0  0  0  0  0
   45.0526  -29.9943 -103.6399 O   0  0  0  0  0  0  0  0  0  0  0  0
   44.7228  -29.6321 -101.3573 C   0  0  1  0  0  0  0  0  0  0  0  0
   43.7012  -29.1398 -100.4916 O   0  0  0  0  0  0  0  0  0  0  0  0
   44.4976  -31.0854 -101.6389 C   0  0  1  0  0  0  0  0  0  0  0  0
   43.0901  -31.3962 -101.5785 O   0  0  0  0  0  0  0  0  0  0  0  0
   45.0321  -31.3322 -103.0816 C   0  0  2  0  0  0  0  0  0  0  0  0
   48.0462  -23.5041 -101.7276 O   0  0  0  0  0  0  0  0  0  0  0  0
   50.0574  -31.4836 -101.3725 N   0  0  0  0  0  0  0  0  0  0  0  0
   49.0359  -30.7442 -100.8748 C   0  0  0  0  0  0  0  0  0  0  0  0
   47.7867  -30.8298 -101.3779 N   0  0  0  0  0  0  0  0  0  0  0  0
   47.5328  -31.5914 -102.4545 C   0  0  0  0  0  0  0  0  0  0  0  0
   48.6003  -32.3642 -103.0425 C   0  0  0  0  0  0  0  0  0  0  0  0
   49.8934  -32.2868 -102.4448 C   0  0  0  0  0  0  0  0  0  0  0  0
   50.9568  -33.0069 -102.9501 N   0  0  0  0  0  0  0  0  0  0  0  0
   48.0872  -33.0202 -104.0899 N   0  0  0  0  0  0  0  0  0  0  0  0
   46.8278  -32.7186 -104.2011 C   0  0  0  0  0  0  0  0  0  0  0  0
   46.4261  -31.8470 -103.2159 N   0  0  0  0  0  0  0  0  0  0  0  0
  2  1  1  6  0  0  0
  2  3  1  0  0  0  0
  2  5  1  0  0  0  0
  3  4  1  0  0  0  0
  3 17  1  0  0  0  0
  5  6  1  0  0  0  0
  7  6  1  1  0  0  0
  7  8  1  0  0  0  0
  7  9  1  0  0  0  0
 10  9  1  1  0  0  0
 10 11  1  0  0  0  0
 10 12  1  0  0  0  0
 11 16  1  0  0  0  0
 12 13  1  1  0  0  0
 12 14  1  0  0  0  0
 14 15  1  6  0  0  0
 14 16  1  0  0  0  0
 16 27  1  1  0  0  0
 18 19  2  0  0  0  0
 18 23  1  0  0  0  0
 19 20  1  0  0  0  0
 20 21  2  0  0  0  0
 21 22  1  0  0  0  0
 21 27  1  0  0  0  0
 22 23  2  0  0  0  0
 22 25  1  0  0  0  0
 23 24  1  0  0  0  0
 25 26  2  0  0  0  0
 26 27  1  0  0  0  0
M  END
>  <CHROM.1>
-41.28180336,176.39463108,175.77162841,-94.27676856,159.71412912,54.49879419
78.82505395,46.86145586,-28.75150602,-102.91274900,-1.50860363,-0.03502124
2.99771181

>  <Name>
ligand

>  <RI>
0

>  <Rbt.Current_Directory>
/home/itssahil/PROJECTS/Mol_Feturizer/New_Systems/rnas/4L81

>  <Rbt.Executable>
rbdock ($Id: //depot/dev/client3/rdock/2013.1/src/exe/rbdock.cxx#4 $)

>  <Rbt.Library>
libRbt.so (2013.1, Build901 2013/11/27)

>  <Rbt.Parameter_File>
/export/apps/rDock/src/rDock_2013.1_src/data/scripts/dock_solv.prm

>  <Rbt.Receptor>
prm/pocket_docking_6.prm

>  <SCORE>
-18.245

>  <SCORE.INTER>
-15.8357

>  <SCORE.INTER.CONST>
1

>  <SCORE.INTER.POLAR>
0

>  <SCORE.INTER.ROT>
7

>  <SCORE.INTER.SOLV>
12.2631

>  <SCORE.INTER.VDW>
-22.9115

>  <SCORE.INTER.norm>
-0.586507

>  <SCORE.INTRA>
-2.40934

>  <SCORE.INTRA.DIHEDRAL>
-2.80858

>  <SCORE.INTRA.DIHEDRAL.0>
8.34559

>  <SCORE.INTRA.POLAR>
0

>  <SCORE.INTRA.POLAR.0>
0

>  <SCORE.INTRA.REPUL>
0

>  <SCORE.INTRA.REPUL.0>
0

>  <SCORE.INTRA.SOLV>
-1.25722

>  <SCORE.INTRA.SOLV.lig_0>
-48.829

>  <SCORE.INTRA.VDW>
-0.376436

>  <SCORE.INTRA.VDW.0>
-1.77092

>  <SCORE.INTRA.norm>
-0.0892348

>  <SCORE.RESTR>
0

>  <SCORE.RESTR.CAVITY>
0

>  <SCORE.RESTR.norm>
0

>  <SCORE.SYSTEM>
0

>  <SCORE.SYSTEM.CONST>
0

>  <SCORE.SYSTEM.DIHEDRAL>
0

>  <SCORE.SYSTEM.SOLV>
0

>  <SCORE.SYSTEM.norm>
0

>  <SCORE.heavy>
27

>  <SCORE.norm>
-0.675742

>  <RMSD>
5.331

$$$$
ligand
 OpenBabel11021811503D
libRbt.so/2013.1/901 2013/11/27
 27 29  0  0  0  0  0  0  0  0999 V2000
   48.6525  -22.5888 -104.9817 N   0  0  0  0  0  0  0  0  0  0  0  0
   47.8707  -23.3594 -104.0082 C   0  0  2  0  0  0  0  0  0  0  0  0
   48.6765  -23.5344 -102.7382 C   0  0  0  0  0  0  0  0  0  0  0  0
   48.1413  -23.4024 -101.6478 O   0  0  0  0  0  0  0  0  0  0  0  0
   47.5034  -24.7447 -104.5573 C   0  0  0  0  0  0  0  0  0  0  0  0
   46.7034  -25.5379 -103.5338 C   0  0  0  0  0  0  0  0  0  0  0  0
   46.0450  -27.1174 -104.1934 S   0  0  2  0  0  0  0  0  0  0  0  0
   44.3935  -26.6757 -104.8236 C   0  0  0  0  0  0  0  0  0  0  0  0
   45.5694  -27.7896 -102.6026 C   0  0  0  0  0  0  0  0  0  0  0  0
   44.6781  -28.9992 -102.6980 C   0  0  1  0  0  0  0  0  0  0  0  0
   45.3156  -29.9495 -103.5682 O   0  0  0  0  0  0  0  0  0  0  0  0
   44.7499  -29.5635 -101.3363 C   0  0  1  0  0  0  0  0  0  0  0  0
   43.6169  -29.1378 -100.5809 O   0  0  0  0  0  0  0  0  0  0  0  0
   44.6693  -31.0366 -101.5926 C   0  0  1  0  0  0  0  0  0  0  0  0
   43.2918  -31.4616 -101.6489 O   0  0  0  0  0  0  0  0  0  0  0  0
   45.3518  -31.2713 -102.9736 C   0  0  2  0  0  0  0  0  0  0  0  0
   49.8548  -23.8403 -102.7925 O   0  0  0  0  0  0  0  0  0  0  0  0
   50.1884  -30.9899 -100.7995 N   0  0  0  0  0  0  0  0  0  0  0  0
   49.0681  -30.3310 -100.4139 C   0  0  0  0  0  0  0  0  0  0  0  0
   47.8831  -30.5246 -101.0299 N   0  0  0  0  0  0  0  0  0  0  0  0
   47.7946  -31.3171 -102.1104 C   0  0  0  0  0  0  0  0  0  0  0  0
   48.9717  -32.0066 -102.5809 C   0  0  0  0  0  0  0  0  0  0  0  0
   50.1919  -31.8164 -101.8666 C   0  0  0  0  0  0  0  0  0  0  0  0
   51.3529  -32.4529 -102.2562 N   0  0  0  0  0  0  0  0  0  0  0  0
   48.6147  -32.7148 -103.6588 N   0  0  0  0  0  0  0  0  0  0  0  0
   47.3513  -32.5189 -103.8931 C   0  0  0  0  0  0  0  0  0  0  0  0
   46.7892  -31.6716 -102.9669 N   0  0  0  0  0  0  0  0  0  0  0  0
  2  1  1  6  0  0  0
  2  3  1  0  0  0  0
  2  5  1  0  0  0  0
  3  4  1  0  0  0  0
  3 17  1  0  0  0  0
  5  6  1  0  0  0  0
  7  6  1  1  0  0  0
  7  8  1  0  0  0  0
  7  9  1  0  0  0  0
 10  9  1  1  0  0  0
 10 11  1  0  0  0  0
 10 12  1  0  0  0  0
 11 16  1  0  0  0  0
 12 13  1  1  0  0  0
 12 14  1  0  0  0  0
 14 15  1  6  0  0  0
 14 16  1  0  0  0  0
 16 27  1  1  0  0  0
 18 19  2  0  0  0  0
 18 23  1  0  0  0  0
 19 20  1  0  0  0  0
 20 21  2  0  0  0  0
 21 22  1  0  0  0  0
 21 27  1  0  0  0  0
 22 23  2  0  0  0  0
 22 25  1  0  0  0  0
 23 24  1  0  0  0  0
 25 26  2  0  0  0  0
 26 27  1  0  0  0  0
M  END
>  <CHROM.1>
137.52787027,179.50881831,172.63684561,-91.42332421,166.94421579,52.46569757
79.49676956,47.04645457,-28.59458562,-102.73612743,-1.51058391,0.06055948
2.95136370

>  <Name>
ligand

>  <RI>
0

>  <Rbt.Current_Directory>
/home/itssahil/PROJECTS/Mol_Feturizer/New_Systems/rnas/4L81

>  <Rbt.Executable>
rbdock ($Id: //depot/dev/client3/rdock/2013.1/src/exe/rbdock.cxx#4 $)

>  <Rbt.Library>
libRbt.so (2013.1, Build901 2013/11/27)

>  <Rbt.Parameter_File>
/export/apps/rDock/src/rDock_2013.1_src/data/scripts/dock_solv.prm

>  <Rbt.Receptor>
prm/pocket_docking_5.prm

>  <SCORE>
-18.4003

>  <SCORE.INTER>
-15.343

>  <SCORE.INTER.CONST>
1

>  <SCORE.INTER.POLAR>
0

>  <SCORE.INTER.ROT>
7

>  <SCORE.INTER.SOLV>
12.663

>  <SCORE.INTER.VDW>
-22.7164

>  <SCORE.INTER.norm>
-0.56826

>  <SCORE.INTRA>
-3.05729

>  <SCORE.INTRA.DIHEDRAL>
-3.4311

>  <SCORE.INTRA.DIHEDRAL.0>
8.34559

>  <SCORE.INTRA.POLAR>
0

>  <SCORE.INTRA.POLAR.0>
0

>  <SCORE.INTRA.REPUL>
0

>  <SCORE.INTRA.REPUL.0>
0

>  <SCORE.INTRA.SOLV>
-1.27792

>  <SCORE.INTRA.SOLV.lig_0>
-48.829

>  <SCORE.INTRA.VDW>
-0.702785

>  <SCORE.INTRA.VDW.0>
-1.77092

>  <SCORE.INTRA.norm>
-0.113233

>  <SCORE.RESTR>
0

>  <SCORE.RESTR.CAVITY>
0

>  <SCORE.RESTR.norm>
0

>  <SCORE.SYSTEM>
0

>  <SCORE.SYSTEM.CONST>
0

>  <SCORE.SYSTEM.DIHEDRAL>
0

>  <SCORE.SYSTEM.SOLV>
0

>  <SCORE.SYSTEM.norm>
0

>  <SCORE.heavy>
27

>  <SCORE.norm>
-0.681493

>  <RMSD>
5.335

$$$$
ligand
 OpenBabel11021811503D
libRbt.so/2013.1/901 2013/11/27
 27 29  0  0  0  0  0  0  0  0999 V2000
   47.7903  -24.1618 -104.7626 N   0  0  0  0  0  0  0  0  0  0  0  0
   47.6480  -24.3834 -103.3192 C   0  0  2  0  0  0  0  0  0  0  0  0
   48.8215  -23.7590 -102.5941 C   0  0  0  0  0  0  0  0  0  0  0  0
   49.9525  -24.1839 -102.7755 O   0  0  0  0  0  0  0  0  0  0  0  0
   47.5986  -25.8806 -102.9856 C   0  0  0  0  0  0  0  0  0  0  0  0
   46.2333  -26.4648 -103.3198 C   0  0  0  0  0  0  0  0  0  0  0  0
   46.1595  -28.2880 -103.1355 S   0  0  2  0  0  0  0  0  0  0  0  0
   47.1663  -28.9106 -104.5205 C   0  0  0  0  0  0  0  0  0  0  0  0
   44.5332  -28.4741 -103.8631 C   0  0  0  0  0  0  0  0  0  0  0  0
   43.9992  -29.8805 -103.8015 C   0  0  1  0  0  0  0  0  0  0  0  0
   45.0195  -30.7621 -104.3002 O   0  0  0  0  0  0  0  0  0  0  0  0
   43.9038  -30.1282 -102.3499 C   0  0  1  0  0  0  0  0  0  0  0  0
   42.5650  -29.9014 -101.9122 O   0  0  0  0  0  0  0  0  0  0  0  0
   44.2349  -31.5850 -102.2484 C   0  0  1  0  0  0  0  0  0  0  0  0
   43.0453  -32.3831 -102.4186 O   0  0  0  0  0  0  0  0  0  0  0  0
   45.2389  -31.8797 -103.4030 C   0  0  2  0  0  0  0  0  0  0  0  0
   48.6522  -22.8084 -101.8507 O   0  0  0  0  0  0  0  0  0  0  0  0
   49.1730  -30.4576 -100.1321 N   0  0  0  0  0  0  0  0  0  0  0  0
   47.8502  -30.1919 -100.0001 C   0  0  0  0  0  0  0  0  0  0  0  0
   46.9421  -30.6502 -100.8869 N   0  0  0  0  0  0  0  0  0  0  0  0
   47.3336  -31.3155 -101.9859 C   0  0  0  0  0  0  0  0  0  0  0  0
   48.7368  -31.5851 -102.1879 C   0  0  0  0  0  0  0  0  0  0  0  0
   49.6574  -31.1304 -101.1973 C   0  0  0  0  0  0  0  0  0  0  0  0
   51.0120  -31.3626 -101.3226 N   0  0  0  0  0  0  0  0  0  0  0  0
   48.8530  -32.2472 -103.3450 N   0  0  0  0  0  0  0  0  0  0  0  0
   47.6716  -32.3975 -103.8657 C   0  0  0  0  0  0  0  0  0  0  0  0
   46.6929  -31.8500 -103.0693 N   0  0  0  0  0  0  0  0  0  0  0  0
  2  1  1  6  0  0  0
  2  3  1  0  0  0  0
  2  5  1  0  0  0  0
  3  4  1  0  0  0  0
  3 17  1  0  0  0  0
  5  6  1  0  0  0  0
  7  6  1  6  0  0  0
  7  8  1  0  0  0  0
  7  9  1  0  0  0  0
 10  9  1  1  0  0  0
 10 11  1  0  0  0  0
 10 12  1  0  0  0  0
 11 16  1  0  0  0  0
 12 13  1  6  0  0  0
 12 14  1  0  0  0  0
 14 15  1  6  0  0  0
 14 16  1  0  0  0  0
 16 27  1  1  0  0  0
 18 19  2  0  0  0  0
 18 23  1  0  0  0  0
 19 20  1  0  0  0  0
 20 21  2  0  0  0  0
 21 22  1  0  0  0  0
 21 27  1  0  0  0  0
 22 23  2  0  0  0  0
 22 25  1  0  0  0  0
 23 24  1  0  0  0  0
 25 26  2  0  0  0  0
 26 27  1  0  0  0  0
M  END
>  <CHROM.1>
-64.46402285,-76.67941619,173.16850477,-70.81053024,-174.76331186,-49.72929416
96.71157482,46.82572193,-29.04567641,-102.69371132,1.19677801,-0.26268148
-0.15568790

>  <Name>
ligand

>  <RI>
0

>  <Rbt.Current_Directory>
/home/itssahil/PROJECTS/Mol_Feturizer/New_Systems/rnas/4L81

>  <Rbt.Executable>
rbdock ($Id: //depot/dev/client3/rdock/2013.1/src/exe/rbdock.cxx#4 $)

>  <Rbt.Library>
libRbt.so (2013.1, Build901 2013/11/27)

>  <Rbt.Parameter_File>
/export/apps/rDock/src/rDock_2013.1_src/data/scripts/dock_solv.prm

>  <Rbt.Receptor>
prm/pocket_docking_6.prm

>  <SCORE>
-16.9705

>  <SCORE.INTER>
-13.7031

>  <SCORE.INTER.CONST>
1

>  <SCORE.INTER.POLAR>
0

>  <SCORE.INTER.ROT>
7

>  <SCORE.INTER.SOLV>
14.6211

>  <SCORE.INTER.VDW>
-22.2758

>  <SCORE.INTER.norm>
-0.507521

>  <SCORE.INTRA>
-3.26743

>  <SCORE.INTRA.DIHEDRAL>
-3.0209

>  <SCORE.INTRA.DIHEDRAL.0>
8.34559

>  <SCORE.INTRA.POLAR>
0

>  <SCORE.INTRA.POLAR.0>
0

>  <SCORE.INTRA.REPUL>
0

>  <SCORE.INTRA.REPUL.0>
0

>  <SCORE.INTRA.SOLV>
-0.396336

>  <SCORE.INTRA.SOLV.lig_0>
-48.829

>  <SCORE.INTRA.VDW>
-1.55881

>  <SCORE.INTRA.VDW.0>
-1.77092

>  <SCORE.INTRA.norm>
-0.121016

>  <SCORE.RESTR>
0

>  <SCORE.RESTR.CAVITY>
0

>  <SCORE.RESTR.norm>
0

>  <SCORE.SYSTEM>
0

>  <SCORE.SYSTEM.CONST>
0

>  <SCORE.SYSTEM.DIHEDRAL>
0

>  <SCORE.SYSTEM.SOLV>
0

>  <SCORE.SYSTEM.norm>
0

>  <SCORE.heavy>
27

>  <SCORE.norm>
-0.628537

>  <RMSD>
5.338

$$$$
ligand
 OpenBabel11021811503D
libRbt.so/2013.1/901 2013/11/27
 27 29  0  0  0  0  0  0  0  0999 V2000
   48.4029  -22.7032 -104.7495 N   0  0  0  0  0  0  0  0  0  0  0  0
   47.6427  -23.5957 -103.8674 C   0  0  2  0  0  0  0  0  0  0  0  0
   48.4658  -23.9104 -102.6361 C   0  0  0  0  0  0  0  0  0  0  0  0
   47.9347  -23.9546 -101.5366 O   0  0  0  0  0  0  0  0  0  0  0  0
   47.2861  -24.9101 -104.5749 C   0  0  0  0  0  0  0  0  0  0  0  0
   46.4848  -25.8201 -103.6547 C   0  0  0  0  0  0  0  0  0  0  0  0
   45.7794  -27.2797 -104.5122 S   0  0  2  0  0  0  0  0  0  0  0  0
   44.1796  -26.6842 -105.1490 C   0  0  0  0  0  0  0  0  0  0  0  0
   45.2045  -28.0979 -103.0259 C   0  0  0  0  0  0  0  0  0  0  0  0
   44.4862  -29.3950 -103.2876 C   0  0  1  0  0  0  0  0  0  0  0  0
   45.3694  -30.2446 -104.0393 O   0  0  0  0  0  0  0  0  0  0  0  0
   44.3822  -29.9861 -101.9395 C   0  0  1  0  0  0  0  0  0  0  0  0
   43.0939  -29.7089 -101.3929 O   0  0  0  0  0  0  0  0  0  0  0  0
   44.5148  -31.4513 -102.2182 C   0  0  1  0  0  0  0  0  0  0  0  0
   43.2254  -32.0233 -102.5209 O   0  0  0  0  0  0  0  0  0  0  0  0
   45.4504  -31.5706 -103.4586 C   0  0  2  0  0  0  0  0  0  0  0  0
   49.6556  -24.1544 -102.7354 O   0  0  0  0  0  0  0  0  0  0  0  0
   49.7941  -30.7335 -100.5210 N   0  0  0  0  0  0  0  0  0  0  0  0
   48.5613  -30.1968 -100.3471 C   0  0  0  0  0  0  0  0  0  0  0  0
   47.5244  -30.5269 -101.1451 N   0  0  0  0  0  0  0  0  0  0  0  0
   47.7038  -31.3374 -102.2007 C   0  0  0  0  0  0  0  0  0  0  0  0
   49.0098  -31.8993 -102.4480 C   0  0  0  0  0  0  0  0  0  0  0  0
   50.0651  -31.5676 -101.5470 C   0  0  0  0  0  0  0  0  0  0  0  0
   51.3360  -32.0774 -101.7188 N   0  0  0  0  0  0  0  0  0  0  0  0
   48.9166  -32.6555 -103.5481 N   0  0  0  0  0  0  0  0  0  0  0  0
   47.6972  -32.6023 -103.9948 C   0  0  0  0  0  0  0  0  0  0  0  0
   46.9004  -31.8106 -103.2011 N   0  0  0  0  0  0  0  0  0  0  0  0
  2  1  1  6  0  0  0
  2  3  1  0  0  0  0
  2  5  1  0  0  0  0
  3  4  1  0  0  0  0
  3 17  1  0  0  0  0
  5  6  1  0  0  0  0
  7  6  1  1  0  0  0
  7  8  1  0  0  0  0
  7  9  1  0  0  0  0
 10  9  1  1  0  0  0
 10 11  1  0  0  0  0
 10 12  1  0  0  0  0
 11 16  1  0  0  0  0
 12 13  1  6  0  0  0
 12 14  1  0  0  0  0
 14 15  1  6  0  0  0
 14 16  1  0  0  0  0
 16 27  1  1  0  0  0
 18 19  2  0  0  0  0
 18 23  1  0  0  0  0
 19 20  1  0  0  0  0
 20 21  2  0  0  0  0
 21 22  1  0  0  0  0
 21 27  1  0  0  0  0
 22 23  2  0  0  0  0
 22 25  1  0  0  0  0
 23 24  1  0  0  0  0
 25 26  2  0  0  0  0
 26 27  1  0  0  0  0
M  END
>  <CHROM.1>
139.59078450,-179.36894152,170.20068784,-87.44224398,178.32859026,56.21100109
77.15194084,46.88220168,-28.77246116,-102.90632130,-1.50210731,0.23659361
2.95691768

>  <Name>
ligand

>  <RI>
0

>  <Rbt.Current_Directory>
/home/itssahil/PROJECTS/Mol_Feturizer/New_Systems/rnas/4L81

>  <Rbt.Executable>
rbdock ($Id: //depot/dev/client3/rdock/2013.1/src/exe/rbdock.cxx#4 $)

>  <Rbt.Library>
libRbt.so (2013.1, Build901 2013/11/27)

>  <Rbt.Parameter_File>
/export/apps/rDock/src/rDock_2013.1_src/data/scripts/dock_solv.prm

>  <Rbt.Receptor>
prm/pocket_docking_6.prm

>  <SCORE>
-18.4082

>  <SCORE.INTER>
-14.8783

>  <SCORE.INTER.CONST>
1

>  <SCORE.INTER.POLAR>
0

>  <SCORE.INTER.ROT>
7

>  <SCORE.INTER.SOLV>
13.5348

>  <SCORE.INTER.VDW>
-22.6972

>  <SCORE.INTER.norm>
-0.55105

>  <SCORE.INTRA>
-3.52981

>  <SCORE.INTRA.DIHEDRAL>
-3.789

>  <SCORE.INTRA.DIHEDRAL.0>
8.34559

>  <SCORE.INTRA.POLAR>
0

>  <SCORE.INTRA.POLAR.0>
0

>  <SCORE.INTRA.REPUL>
0

>  <SCORE.INTRA.REPUL.0>
0

>  <SCORE.INTRA.SOLV>
-1.29804

>  <SCORE.INTRA.SOLV.lig_0>
-48.829

>  <SCORE.INTRA.VDW>
-0.986296

>  <SCORE.INTRA.VDW.0>
-1.77092

>  <SCORE.INTRA.norm>
-0.130734

>  <SCORE.RESTR>
0

>  <SCORE.RESTR.CAVITY>
0

>  <SCORE.RESTR.norm>
0

>  <SCORE.SYSTEM>
0

>  <SCORE.SYSTEM.CONST>
0

>  <SCORE.SYSTEM.DIHEDRAL>
0

>  <SCORE.SYSTEM.SOLV>
0

>  <SCORE.SYSTEM.norm>
0

>  <SCORE.heavy>
27

>  <SCORE.norm>
-0.681783

>  <RMSD>
5.339

$$$$
ligand
 OpenBabel11021811503D
libRbt.so/2013.1/901 2013/11/27
 27 29  0  0  0  0  0  0  0  0999 V2000
   48.1969  -25.7876 -104.5096 N   0  0  0  0  0  0  0  0  0  0  0  0
   48.8140  -26.9690 -105.1231 C   0  0  2  0  0  0  0  0  0  0  0  0
   49.8923  -26.5304 -106.0914 C   0  0  0  0  0  0  0  0  0  0  0  0
   49.6593  -25.6616 -106.9182 O   0  0  0  0  0  0  0  0  0  0  0  0
   47.7785  -27.8101 -105.8818 C   0  0  0  0  0  0  0  0  0  0  0  0
   46.7636  -28.4144 -104.9216 C   0  0  0  0  0  0  0  0  0  0  0  0
   45.0456  -27.8545 -105.2349 S   0  0  2  0  0  0  0  0  0  0  0  0
   45.0999  -26.0638 -104.9030 C   0  0  0  0  0  0  0  0  0  0  0  0
   44.3881  -28.4125 -103.6648 C   0  0  0  0  0  0  0  0  0  0  0  0
   43.8841  -29.8311 -103.6888 C   0  0  1  0  0  0  0  0  0  0  0  0
   44.9308  -30.6624 -104.2181 O   0  0  0  0  0  0  0  0  0  0  0  0
   43.7719  -30.1600 -102.2546 C   0  0  1  0  0  0  0  0  0  0  0  0
   42.4220  -29.9857 -101.8272 O   0  0  0  0  0  0  0  0  0  0  0  0
   44.1332  -31.6129 -102.2274 C   0  0  1  0  0  0  0  0  0  0  0  0
   42.9639  -32.4253 -102.4603 O   0  0  0  0  0  0  0  0  0  0  0  0
   45.1609  -31.8227 -103.3797 C   0  0  2  0  0  0  0  0  0  0  0  0
   51.0086  -27.0155 -106.0324 O   0  0  0  0  0  0  0  0  0  0  0  0
   49.0235  -30.3930 -100.0279 N   0  0  0  0  0  0  0  0  0  0  0  0
   47.6958  -30.1429  -99.9157 C   0  0  0  0  0  0  0  0  0  0  0  0
   46.8079  -30.6016 -100.8225 N   0  0  0  0  0  0  0  0  0  0  0  0
   47.2250  -31.2510 -101.9215 C   0  0  0  0  0  0  0  0  0  0  0  0
   48.6343  -31.5034 -102.1024 C   0  0  0  0  0  0  0  0  0  0  0  0
   49.5331  -31.0493 -101.0917 C   0  0  0  0  0  0  0  0  0  0  0  0
   50.8921  -31.2657 -101.1964 N   0  0  0  0  0  0  0  0  0  0  0  0
   48.7772  -32.1521 -103.2641 N   0  0  0  0  0  0  0  0  0  0  0  0
   47.6064  -32.3095 -103.8064 C   0  0  0  0  0  0  0  0  0  0  0  0
   46.6086  -31.7810 -103.0211 N   0  0  0  0  0  0  0  0  0  0  0  0
  2  1  1  6  0  0  0
  2  3  1  0  0  0  0
  2  5  1  0  0  0  0
  3  4  1  0  0  0  0
  3 17  1  0  0  0  0
  5  6  1  0  0  0  0
  7  6  1  1  0  0  0
  7  8  1  0  0  0  0
  7  9  1  0  0  0  0
 10  9  1  1  0  0  0
 10 11  1  0  0  0  0
 10 12  1  0  0  0  0
 11 16  1  0  0  0  0
 12 13  1  6  0  0  0
 12 14  1  0  0  0  0
 14 15  1  6  0  0  0
 14 16  1  0  0  0  0
 16 27  1  1  0  0  0
 18 19  2  0  0  0  0
 18 23  1  0  0  0  0
 19 20  1  0  0  0  0
 20 21  2  0  0  0  0
 21 22  1  0  0  0  0
 21 27  1  0  0  0  0
 22 23  2  0  0  0  0
 22 25  1  0  0  0  0
 23 24  1  0  0  0  0
 25 26  2  0  0  0  0
 26 27  1  0  0  0  0
M  END
>  <CHROM.1>
-48.71207684,-66.00095433,118.41663256,-64.01645095,-89.29904776,52.26232030
94.09818038,46.78158381,-29.47534480,-103.49417568,0.99093679,-0.07234920
-0.71108209

>  <Name>
ligand

>  <RI>
0

>  <Rbt.Current_Directory>
/home/itssahil/PROJECTS/Mol_Feturizer/New_Systems/rnas/4L81

>  <Rbt.Executable>
rbdock ($Id: //depot/dev/client3/rdock/2013.1/src/exe/rbdock.cxx#4 $)

>  <Rbt.Library>
libRbt.so (2013.1, Build901 2013/11/27)

>  <Rbt.Parameter_File>
/export/apps/rDock/src/rDock_2013.1_src/data/scripts/dock_solv.prm

>  <Rbt.Receptor>
prm/pocket_docking_3.prm

>  <SCORE>
-13.1755

>  <SCORE.INTER>
-13.1609

>  <SCORE.INTER.CONST>
1

>  <SCORE.INTER.POLAR>
0

>  <SCORE.INTER.ROT>
7

>  <SCORE.INTER.SOLV>
14.701

>  <SCORE.INTER.VDW>
-21.9409

>  <SCORE.INTER.norm>
-0.487441

>  <SCORE.INTRA>
-0.0145575

>  <SCORE.INTRA.DIHEDRAL>
2.18294

>  <SCORE.INTRA.DIHEDRAL.0>
8.34559

>  <SCORE.INTRA.POLAR>
0

>  <SCORE.INTRA.POLAR.0>
0

>  <SCORE.INTRA.REPUL>
0

>  <SCORE.INTRA.REPUL.0>
0

>  <SCORE.INTRA.SOLV>
1.22296

>  <SCORE.INTRA.SOLV.lig_0>
-48.829

>  <SCORE.INTRA.VDW>
-1.71751

>  <SCORE.INTRA.VDW.0>
-1.77092

>  <SCORE.INTRA.norm>
-0.000539166

>  <SCORE.RESTR>
0

>  <SCORE.RESTR.CAVITY>
0

>  <SCORE.RESTR.norm>
0

>  <SCORE.SYSTEM>
0

>  <SCORE.SYSTEM.CONST>
0

>  <SCORE.SYSTEM.DIHEDRAL>
0

>  <SCORE.SYSTEM.SOLV>
0

>  <SCORE.SYSTEM.norm>
0

>  <SCORE.heavy>
27

>  <SCORE.norm>
-0.48798

>  <RMSD>
5.340

$$$$
ligand
 OpenBabel11021811503D
libRbt.so/2013.1/901 2013/11/27
 27 29  0  0  0  0  0  0  0  0999 V2000
   49.3705  -26.3346 -106.7231 N   0  0  0  0  0  0  0  0  0  0  0  0
   48.8121  -27.3364 -107.6382 C   0  0  2  0  0  0  0  0  0  0  0  0
   48.3635  -26.6591 -108.9160 C   0  0  0  0  0  0  0  0  0  0  0  0
   48.0870  -25.4691 -108.9163 O   0  0  0  0  0  0  0  0  0  0  0  0
   47.6114  -28.0582 -107.0116 C   0  0  0  0  0  0  0  0  0  0  0  0
   46.5638  -27.0588 -106.5419 C   0  0  0  0  0  0  0  0  0  0  0  0
   45.0640  -27.8527 -105.8465 S   0  0  2  0  0  0  0  0  0  0  0  0
   44.0671  -26.4531 -105.2408 C   0  0  0  0  0  0  0  0  0  0  0  0
   45.8247  -28.3465 -104.3018 C   0  0  0  0  0  0  0  0  0  0  0  0
   44.9786  -29.2843 -103.4823 C   0  0  1  0  0  0  0  0  0  0  0  0
   45.2537  -30.6252 -103.9221 O   0  0  0  0  0  0  0  0  0  0  0  0
   45.5649  -29.1565 -102.1342 C   0  0  1  0  0  0  0  0  0  0  0  0
   44.7943  -28.2373 -101.3618 O   0  0  0  0  0  0  0  0  0  0  0  0
   45.4127  -30.5405 -101.5832 C   0  0  1  0  0  0  0  0  0  0  0  0
   44.1208  -30.6930 -100.9593 O   0  0  0  0  0  0  0  0  0  0  0  0
   45.5281  -31.5042 -102.8022 C   0  0  2  0  0  0  0  0  0  0  0  0
   48.3065  -27.2863 -109.9593 O   0  0  0  0  0  0  0  0  0  0  0  0
   50.6961  -31.9198 -101.6543 N   0  0  0  0  0  0  0  0  0  0  0  0
   49.7796  -31.1133 -101.0648 C   0  0  0  0  0  0  0  0  0  0  0  0
   48.4793  -31.1343 -101.4250 N   0  0  0  0  0  0  0  0  0  0  0  0
   48.0646  -31.8984 -102.4486 C   0  0  0  0  0  0  0  0  0  0  0  0
   49.0147  -32.7426 -103.1321 C   0  0  0  0  0  0  0  0  0  0  0  0
   50.3686  -32.7306 -102.6826 C   0  0  0  0  0  0  0  0  0  0  0  0
   51.3269  -33.5206 -103.2847 N   0  0  0  0  0  0  0  0  0  0  0  0
   48.3520  -33.3856 -104.1006 N   0  0  0  0  0  0  0  0  0  0  0  0
   47.1070  -33.0128 -104.0795 C   0  0  0  0  0  0  0  0  0  0  0  0
   46.8673  -32.1021 -103.0770 N   0  0  0  0  0  0  0  0  0  0  0  0
  2  1  1  1  0  0  0
  2  3  1  0  0  0  0
  2  5  1  0  0  0  0
  3  4  1  0  0  0  0
  3 17  1  0  0  0  0
  5  6  1  0  0  0  0
  7  6  1  6  0  0  0
  7  8  1  0  0  0  0
  7  9  1  0  0  0  0
 10  9  1  6  0  0  0
 10 11  1  0  0  0  0
 10 12  1  0  0  0  0
 11 16  1  0  0  0  0
 12 13  1  1  0  0  0
 12 14  1  0  0  0  0
 14 15  1  6  0  0  0
 14 16  1  0  0  0  0
 16 27  1  6  0  0  0
 18 19  2  0  0  0  0
 18 23  1  0  0  0  0
 19 20  1  0  0  0  0
 20 21  2  0  0  0  0
 21 22  1  0  0  0  0
 21 27  1  0  0  0  0
 22 23  2  0  0  0  0
 22 25  1  0  0  0  0
 23 24  1  0  0  0  0
 25 26  2  0  0  0  0
 26 27  1  0  0  0  0
M  END
>  <CHROM.1>
-23.60510292,54.26624859,177.49116739,175.18070123,-169.51234547,86.78416800
110.35071776,47.15226943,-29.61664703,-104.35531161,-1.68405370,-0.46277793
2.27941523

>  <Name>
ligand

>  <RI>
0

>  <Rbt.Current_Directory>
/home/itssahil/PROJECTS/Mol_Feturizer/New_Systems/rnas/4L81

>  <Rbt.Executable>
rbdock ($Id: //depot/dev/client3/rdock/2013.1/src/exe/rbdock.cxx#4 $)

>  <Rbt.Library>
libRbt.so (2013.1, Build901 2013/11/27)

>  <Rbt.Parameter_File>
/export/apps/rDock/src/rDock_2013.1_src/data/scripts/dock_solv.prm

>  <Rbt.Receptor>
prm/pocket_docking_6.prm

>  <SCORE>
-15.0421

>  <SCORE.INTER>
-13.4031

>  <SCORE.INTER.CONST>
1

>  <SCORE.INTER.POLAR>
0

>  <SCORE.INTER.ROT>
7

>  <SCORE.INTER.SOLV>
14.8817

>  <SCORE.INTER.VDW>
-22.1626

>  <SCORE.INTER.norm>
-0.496412

>  <SCORE.INTRA>
-1.63898

>  <SCORE.INTRA.DIHEDRAL>
-1.76359

>  <SCORE.INTRA.DIHEDRAL.0>
8.34559

>  <SCORE.INTRA.POLAR>
0

>  <SCORE.INTRA.POLAR.0>
0

>  <SCORE.INTRA.REPUL>
0

>  <SCORE.INTRA.REPUL.0>
0

>  <SCORE.INTRA.SOLV>
-0.596761

>  <SCORE.INTRA.SOLV.lig_0>
-48.829

>  <SCORE.INTRA.VDW>
-0.458808

>  <SCORE.INTRA.VDW.0>
-1.77092

>  <SCORE.INTRA.norm>
-0.060703

>  <SCORE.RESTR>
0

>  <SCORE.RESTR.CAVITY>
0

>  <SCORE.RESTR.norm>
0

>  <SCORE.SYSTEM>
0

>  <SCORE.SYSTEM.CONST>
0

>  <SCORE.SYSTEM.DIHEDRAL>
0

>  <SCORE.SYSTEM.SOLV>
0

>  <SCORE.SYSTEM.norm>
0

>  <SCORE.heavy>
27

>  <SCORE.norm>
-0.557115

>  <RMSD>
5.341

$$$$
ligand
 OpenBabel11021811503D
libRbt.so/2013.1/901 2013/11/27
 27 29  0  0  0  0  0  0  0  0999 V2000
   49.4343  -26.0485 -104.8045 N   0  0  0  0  0  0  0  0  0  0  0  0
   48.3393  -25.5665 -105.6538 C   0  0  2  0  0  0  0  0  0  0  0  0
   48.8720  -24.5397 -106.6308 C   0  0  0  0  0  0  0  0  0  0  0  0
   48.2139  -24.2246 -107.6108 O   0  0  0  0  0  0  0  0  0  0  0  0
   47.2246  -24.9237 -104.8174 C   0  0  0  0  0  0  0  0  0  0  0  0
   46.6487  -25.9227 -103.8238 C   0  0  0  0  0  0  0  0  0  0  0  0
   45.8135  -27.3447 -104.6260 S   0  0  2  0  0  0  0  0  0  0  0  0
   44.1589  -26.7049 -105.0412 C   0  0  0  0  0  0  0  0  0  0  0  0
   45.4122  -28.1972 -103.1025 C   0  0  0  0  0  0  0  0  0  0  0  0
   44.5105  -29.3877 -103.2939 C   0  0  1  0  0  0  0  0  0  0  0  0
   45.1749  -30.3069 -104.1774 O   0  0  0  0  0  0  0  0  0  0  0  0
   44.5125  -30.0144 -101.9579 C   0  0  1  0  0  0  0  0  0  0  0  0
   43.3517  -29.6065 -101.2356 O   0  0  0  0  0  0  0  0  0  0  0  0
   44.4246  -31.4729 -102.2852 C   0  0  1  0  0  0  0  0  0  0  0  0
   43.0457  -31.8741 -102.4233 O   0  0  0  0  0  0  0  0  0  0  0  0
   45.1667  -31.6548 -103.6433 C   0  0  2  0  0  0  0  0  0  0  0  0
   49.9441  -23.9961 -106.4307 O   0  0  0  0  0  0  0  0  0  0  0  0
   49.3518  -33.9994 -105.9204 N   0  0  0  0  0  0  0  0  0  0  0  0
   48.0968  -33.8811 -106.4191 C   0  0  0  0  0  0  0  0  0  0  0  0
   47.1275  -33.2197 -105.7526 N   0  0  0  0  0  0  0  0  0  0  0  0
   47.3541  -32.7296 -104.5230 C   0  0  0  0  0  0  0  0  0  0  0  0
   48.6650  -32.8691 -103.9358 C   0  0  0  0  0  0  0  0  0  0  0  0
   49.6757  -33.5268 -104.6982 C   0  0  0  0  0  0  0  0  0  0  0  0
   50.9534  -33.6859 -104.2013 N   0  0  0  0  0  0  0  0  0  0  0  0
   48.6199  -32.3073 -102.7221 N   0  0  0  0  0  0  0  0  0  0  0  0
   47.4207  -31.8523 -102.5119 C   0  0  0  0  0  0  0  0  0  0  0  0
   46.5969  -32.0766 -103.5901 N   0  0  0  0  0  0  0  0  0  0  0  0
  2  1  1  1  0  0  0
  2  3  1  0  0  0  0
  2  5  1  0  0  0  0
  3  4  1  0  0  0  0
  3 17  1  0  0  0  0
  5  6  1  0  0  0  0
  7  6  1  1  0  0  0
  7  8  1  0  0  0  0
  7  9  1  0  0  0  0
 10  9  1  1  0  0  0
 10 11  1  0  0  0  0
 10 12  1  0  0  0  0
 11 16  1  0  0  0  0
 12 13  1  1  0  0  0
 12 14  1  0  0  0  0
 14 15  1  6  0  0  0
 14 16  1  0  0  0  0
 16 27  1  1  0  0  0
 18 19  2  0  0  0  0
 18 23  1  0  0  0  0
 19 20  1  0  0  0  0
 20 21  2  0  0  0  0
 21 22  1  0  0  0  0
 21 27  1  0  0  0  0
 22 23  2  0  0  0  0
 22 25  1  0  0  0  0
 23 24  1  0  0  0  0
 25 26  2  0  0  0  0
 26 27  1  0  0  0  0
M  END
>  <CHROM.1>
163.99706057,-59.58861373,-64.23431332,-81.54873882,171.77250632,59.25443596
-91.23795321,46.85775003,-29.48429167,-104.30619206,-1.48638338,-0.49318872
2.95516660

>  <Name>
ligand

>  <RI>
0

>  <Rbt.Current_Directory>
/home/itssahil/PROJECTS/Mol_Feturizer/New_Systems/rnas/4L81

>  <Rbt.Executable>
rbdock ($Id: //depot/dev/client3/rdock/2013.1/src/exe/rbdock.cxx#4 $)

>  <Rbt.Library>
libRbt.so (2013.1, Build901 2013/11/27)

>  <Rbt.Parameter_File>
/export/apps/rDock/src/rDock_2013.1_src/data/scripts/dock_solv.prm

>  <Rbt.Receptor>
prm/pocket_docking_8.prm

>  <SCORE>
-13.6479

>  <SCORE.INTER>
-10.8193

>  <SCORE.INTER.CONST>
1

>  <SCORE.INTER.POLAR>
0

>  <SCORE.INTER.ROT>
7

>  <SCORE.INTER.SOLV>
11.5018

>  <SCORE.INTER.VDW>
-19.3134

>  <SCORE.INTER.norm>
-0.400713

>  <SCORE.INTRA>
-2.82865

>  <SCORE.INTRA.DIHEDRAL>
-4.66546

>  <SCORE.INTRA.DIHEDRAL.0>
8.34559

>  <SCORE.INTRA.POLAR>
0

>  <SCORE.INTRA.POLAR.0>
0

>  <SCORE.INTRA.REPUL>
0

>  <SCORE.INTRA.REPUL.0>
0

>  <SCORE.INTRA.SOLV>
-0.000597081

>  <SCORE.INTRA.SOLV.lig_0>
-48.829

>  <SCORE.INTRA.VDW>
-0.495617

>  <SCORE.INTRA.VDW.0>
-1.77092

>  <SCORE.INTRA.norm>
-0.104765

>  <SCORE.RESTR>
0

>  <SCORE.RESTR.CAVITY>
0

>  <SCORE.RESTR.norm>
0

>  <SCORE.SYSTEM>
0

>  <SCORE.SYSTEM.CONST>
0

>  <SCORE.SYSTEM.DIHEDRAL>
0

>  <SCORE.SYSTEM.SOLV>
0

>  <SCORE.SYSTEM.norm>
0

>  <SCORE.heavy>
27

>  <SCORE.norm>
-0.505478

>  <RMSD>
5.341

$$$$
ligand
 OpenBabel11021811503D
libRbt.so/2013.1/901 2013/11/27
 27 29  0  0  0  0  0  0  0  0999 V2000
   45.6696  -31.4386 -104.0709 N   0  0  0  0  0  0  0  0  0  0  0  0
   47.0714  -31.2232 -104.4469 C   0  0  2  0  0  0  0  0  0  0  0  0
   47.2585  -31.5569 -105.9120 C   0  0  0  0  0  0  0  0  0  0  0  0
   46.4665  -32.2933 -106.4805 O   0  0  0  0  0  0  0  0  0  0  0  0
   48.0149  -32.1015 -103.6139 C   0  0  0  0  0  0  0  0  0  0  0  0
   48.1182  -31.5826 -102.1867 C   0  0  0  0  0  0  0  0  0  0  0  0
   48.7710  -29.8719 -102.0820 S   0  0  2  0  0  0  0  0  0  0  0  0
   50.5593  -30.0997 -101.8186 C   0  0  0  0  0  0  0  0  0  0  0  0
   48.2691  -29.5941 -100.3850 C   0  0  0  0  0  0  0  0  0  0  0  0
   46.8863  -29.0141 -100.2494 C   0  0  1  0  0  0  0  0  0  0  0  0
   46.7870  -27.8954 -101.1469 O   0  0  0  0  0  0  0  0  0  0  0  0
   46.0315  -30.0785 -100.8098 C   0  0  1  0  0  0  0  0  0  0  0  0
   45.4971  -30.8712  -99.7508 O   0  0  0  0  0  0  0  0  0  0  0  0
   44.9354  -29.2993 -101.4683 C   0  0  1  0  0  0  0  0  0  0  0  0
   43.8844  -29.0137 -100.5222 O   0  0  0  0  0  0  0  0  0  0  0  0
   45.5851  -27.9690 -101.9544 C   0  0  2  0  0  0  0  0  0  0  0  0
   48.1793  -31.0683 -106.5431 O   0  0  0  0  0  0  0  0  0  0  0  0
   49.4411  -27.0851 -105.4967 N   0  0  0  0  0  0  0  0  0  0  0  0
   49.5109  -26.9592 -104.1487 C   0  0  0  0  0  0  0  0  0  0  0  0
   48.4628  -27.2573 -103.3527 N   0  0  0  0  0  0  0  0  0  0  0  0
   47.2789  -27.6069 -103.8815 C   0  0  0  0  0  0  0  0  0  0  0  0
   47.1477  -27.7136 -105.3147 C   0  0  0  0  0  0  0  0  0  0  0  0
   48.2965  -27.4430 -106.1162 C   0  0  0  0  0  0  0  0  0  0  0  0
   48.2438  -27.5357 -107.4922 N   0  0  0  0  0  0  0  0  0  0  0  0
   45.8833  -28.0669 -105.5739 N   0  0  0  0  0  0  0  0  0  0  0  0
   45.2369  -28.1757 -104.4516 C   0  0  0  0  0  0  0  0  0  0  0  0
   46.0470  -27.9114 -103.3720 N   0  0  0  0  0  0  0  0  0  0  0  0
  2  1  1  1  0  0  0
  2  3  1  0  0  0  0
  2  5  1  0  0  0  0
  3  4  1  0  0  0  0
  3 17  1  0  0  0  0
  5  6  1  0  0  0  0
  7  6  1  1  0  0  0
  7  8  1  0  0  0  0
  7  9  1  0  0  0  0
 10  9  1  6  0  0  0
 10 11  1  0  0  0  0
 10 12  1  0  0  0  0
 11 16  1  0  0  0  0
 12 13  1  1  0  0  0
 12 14  1  0  0  0  0
 14 15  1  1  0  0  0
 14 16  1  0  0  0  0
 16 27  1  6  0  0  0
 18 19  2  0  0  0  0
 18 23  1  0  0  0  0
 19 20  1  0  0  0  0
 20 21  2  0  0  0  0
 21 22  1  0  0  0  0
 21 27  1  0  0  0  0
 22 23  2  0  0  0  0
 22 25  1  0  0  0  0
 23 24  1  0  0  0  0
 25 26  2  0  0  0  0
 26 27  1  0  0  0  0
M  END
>  <CHROM.1>
-21.83541760,-72.97076981,-60.34623886,-94.13329794,-89.85608710,-48.71562970
-11.31031196,47.23015236,-29.36881629,-103.32406918,2.69771568,1.23261486
0.59408582

>  <Name>
ligand

>  <RI>
0

>  <Rbt.Current_Directory>
/home/itssahil/PROJECTS/Mol_Feturizer/New_Systems/rnas/4L81

>  <Rbt.Executable>
rbdock ($Id: //depot/dev/client3/rdock/2013.1/src/exe/rbdock.cxx#4 $)

>  <Rbt.Library>
libRbt.so (2013.1, Build901 2013/11/27)

>  <Rbt.Parameter_File>
/export/apps/rDock/src/rDock_2013.1_src/data/scripts/dock_solv.prm

>  <Rbt.Receptor>
prm/pocket_docking_4.prm

>  <SCORE>
-9.10056

>  <SCORE.INTER>
-6.4209

>  <SCORE.INTER.CONST>
1

>  <SCORE.INTER.POLAR>
0

>  <SCORE.INTER.ROT>
7

>  <SCORE.INTER.SOLV>
10.9345

>  <SCORE.INTER.VDW>
-16.1921

>  <SCORE.INTER.norm>
-0.237811

>  <SCORE.INTRA>
-2.67967

>  <SCORE.INTRA.DIHEDRAL>
-1.03908

>  <SCORE.INTRA.DIHEDRAL.0>
8.34559

>  <SCORE.INTRA.POLAR>
0

>  <SCORE.INTRA.POLAR.0>
0

>  <SCORE.INTRA.REPUL>
0

>  <SCORE.INTRA.REPUL.0>
0

>  <SCORE.INTRA.SOLV>
3.28869

>  <SCORE.INTRA.SOLV.lig_0>
-48.829

>  <SCORE.INTRA.VDW>
-3.80447

>  <SCORE.INTRA.VDW.0>
-1.77092

>  <SCORE.INTRA.norm>
-0.0992469

>  <SCORE.RESTR>
0

>  <SCORE.RESTR.CAVITY>
0

>  <SCORE.RESTR.norm>
0

>  <SCORE.SYSTEM>
0

>  <SCORE.SYSTEM.CONST>
0

>  <SCORE.SYSTEM.DIHEDRAL>
0

>  <SCORE.SYSTEM.SOLV>
0

>  <SCORE.SYSTEM.norm>
0

>  <SCORE.heavy>
27

>  <SCORE.norm>
-0.337058

>  <RMSD>
5.345

$$$$
ligand
 OpenBabel11021811503D
libRbt.so/2013.1/901 2013/11/27
 27 29  0  0  0  0  0  0  0  0999 V2000
   50.1409  -23.3795 -102.3808 N   0  0  0  0  0  0  0  0  0  0  0  0
   50.3178  -24.1314 -103.6282 C   0  0  2  0  0  0  0  0  0  0  0  0
   50.6647  -23.1751 -104.7497 C   0  0  0  0  0  0  0  0  0  0  0  0
   50.8606  -21.9930 -104.5108 O   0  0  0  0  0  0  0  0  0  0  0  0
   49.0418  -24.8962 -104.0055 C   0  0  0  0  0  0  0  0  0  0  0  0
   48.7007  -25.9356 -102.9470 C   0  0  0  0  0  0  0  0  0  0  0  0
   47.3995  -27.1132 -103.4793 S   0  0  2  0  0  0  0  0  0  0  0  0
   45.9002  -26.0852 -103.6014 C   0  0  0  0  0  0  0  0  0  0  0  0
   47.1253  -27.8200 -101.8563 C   0  0  0  0  0  0  0  0  0  0  0  0
   45.9084  -28.7030 -101.7777 C   0  0  1  0  0  0  0  0  0  0  0  0
   45.9789  -29.6488 -102.8581 O   0  0  0  0  0  0  0  0  0  0  0  0
   46.1407  -29.4662 -100.5363 C   0  0  1  0  0  0  0  0  0  0  0  0
   45.4241  -28.8617  -99.4609 O   0  0  0  0  0  0  0  0  0  0  0  0
   45.5447  -30.8008 -100.8614 C   0  0  1  0  0  0  0  0  0  0  0  0
   44.1357  -30.8101 -100.5516 O   0  0  0  0  0  0  0  0  0  0  0  0
   45.7507  -31.0028 -102.3927 C   0  0  2  0  0  0  0  0  0  0  0  0
   50.7836  -23.5816 -105.8923 O   0  0  0  0  0  0  0  0  0  0  0  0
   50.9075  -32.1656 -101.8890 N   0  0  0  0  0  0  0  0  0  0  0  0
   50.1966  -31.2400 -101.1992 C   0  0  0  0  0  0  0  0  0  0  0  0
   48.8722  -31.0712 -101.3953 N   0  0  0  0  0  0  0  0  0  0  0  0
   48.2283  -31.7602 -102.3515 C   0  0  0  0  0  0  0  0  0  0  0  0
   48.9552  -32.7272 -103.1384 C   0  0  0  0  0  0  0  0  0  0  0  0
   50.3420  -32.9133 -102.8602 C   0  0  0  0  0  0  0  0  0  0  0  0
   51.0948  -33.8284 -103.5678 N   0  0  0  0  0  0  0  0  0  0  0  0
   48.0921  -33.2611 -104.0106 N   0  0  0  0  0  0  0  0  0  0  0  0
   46.9259  -32.7133 -103.8395 C   0  0  0  0  0  0  0  0  0  0  0  0
   46.9456  -31.7850 -102.8248 N   0  0  0  0  0  0  0  0  0  0  0  0
  2  1  1  1  0  0  0
  2  3  1  0  0  0  0
  2  5  1  0  0  0  0
  3  4  1  0  0  0  0
  3 17  1  0  0  0  0
  5  6  1  0  0  0  0
  7  6  1  1  0  0  0
  7  8  1  0  0  0  0
  7  9  1  0  0  0  0
 10  9  1  6  0  0  0
 10 11  1  0  0  0  0
 10 12  1  0  0  0  0
 11 16  1  0  0  0  0
 12 13  1  1  0  0  0
 12 14  1  0  0  0  0
 14 15  1  6  0  0  0
 14 16  1  0  0  0  0
 16 27  1  1  0  0  0
 18 19  2  0  0  0  0
 18 23  1  0  0  0  0
 19 20  1  0  0  0  0
 20 21  2  0  0  0  0
 21 22  1  0  0  0  0
 21 27  1  0  0  0  0
 22 23  2  0  0  0  0
 22 25  1  0  0  0  0
 23 24  1  0  0  0  0
 25 26  2  0  0  0  0
 26 27  1  0  0  0  0
M  END
>  <CHROM.1>
5.83134991,-62.80296358,-168.30661337,-67.37903726,169.29110281,50.66048672
72.09722947,48.08810534,-28.72504242,-102.72630199,-1.29774085,-0.42281324
3.02731840

>  <Name>
ligand

>  <RI>
0

>  <Rbt.Current_Directory>
/home/itssahil/PROJECTS/Mol_Feturizer/New_Systems/rnas/4L81

>  <Rbt.Executable>
rbdock ($Id: //depot/dev/client3/rdock/2013.1/src/exe/rbdock.cxx#4 $)

>  <Rbt.Library>
libRbt.so (2013.1, Build901 2013/11/27)

>  <Rbt.Parameter_File>
/export/apps/rDock/src/rDock_2013.1_src/data/scripts/dock_solv.prm

>  <Rbt.Receptor>
prm/pocket_docking_6.prm

>  <SCORE>
-15.3302

>  <SCORE.INTER>
-12.3428

>  <SCORE.INTER.CONST>
1

>  <SCORE.INTER.POLAR>
0

>  <SCORE.INTER.ROT>
7

>  <SCORE.INTER.SOLV>
17.3848

>  <SCORE.INTER.VDW>
-22.2902

>  <SCORE.INTER.norm>
-0.457142

>  <SCORE.INTRA>
-3.00637

>  <SCORE.INTRA.DIHEDRAL>
-4.24867

>  <SCORE.INTRA.DIHEDRAL.0>
8.34559

>  <SCORE.INTRA.POLAR>
0

>  <SCORE.INTRA.POLAR.0>
0

>  <SCORE.INTRA.REPUL>
0

>  <SCORE.INTRA.REPUL.0>
0

>  <SCORE.INTRA.SOLV>
-0.573453

>  <SCORE.INTRA.SOLV.lig_0>
-48.829

>  <SCORE.INTRA.VDW>
-0.595305

>  <SCORE.INTRA.VDW.0>
-1.77092

>  <SCORE.INTRA.norm>
-0.111347

>  <SCORE.RESTR>
0.0189584

>  <SCORE.RESTR.CAVITY>
0.0189584

>  <SCORE.RESTR.norm>
0.000702162

>  <SCORE.SYSTEM>
0

>  <SCORE.SYSTEM.CONST>
0

>  <SCORE.SYSTEM.DIHEDRAL>
0

>  <SCORE.SYSTEM.SOLV>
0

>  <SCORE.SYSTEM.norm>
0

>  <SCORE.heavy>
27

>  <SCORE.norm>
-0.567787

>  <RMSD>
5.345

$$$$
ligand
 OpenBabel11021811503D
libRbt.so/2013.1/901 2013/11/27
 27 29  0  0  0  0  0  0  0  0999 V2000
   48.2516  -22.8431 -104.1145 N   0  0  0  0  0  0  0  0  0  0  0  0
   47.8004  -24.0145 -103.3549 C   0  0  2  0  0  0  0  0  0  0  0  0
   48.9950  -24.6987 -102.7246 C   0  0  0  0  0  0  0  0  0  0  0  0
   48.8926  -25.8352 -102.2880 O   0  0  0  0  0  0  0  0  0  0  0  0
   47.0725  -25.0197 -104.2578 C   0  0  0  0  0  0  0  0  0  0  0  0
   46.2949  -26.0300 -103.4262 C   0  0  0  0  0  0  0  0  0  0  0  0
   45.5324  -27.3623 -104.4297 S   0  0  2  0  0  0  0  0  0  0  0  0
   44.0746  -26.5675 -105.1797 C   0  0  0  0  0  0  0  0  0  0  0  0
   44.7300  -28.1830 -103.0545 C   0  0  0  0  0  0  0  0  0  0  0  0
   44.1752  -29.5397 -103.3987 C   0  0  1  0  0  0  0  0  0  0  0  0
   45.2301  -30.3075 -104.0027 O   0  0  0  0  0  0  0  0  0  0  0  0
   43.9294  -30.1362 -102.0715 C   0  0  1  0  0  0  0  0  0  0  0  0
   42.5559  -29.9752 -101.7209 O   0  0  0  0  0  0  0  0  0  0  0  0
   44.2305  -31.5839 -102.3073 C   0  0  1  0  0  0  0  0  0  0  0  0
   43.0546  -32.2698 -102.7850 O   0  0  0  0  0  0  0  0  0  0  0  0
   45.3432  -31.6202 -103.3976 C   0  0  2  0  0  0  0  0  0  0  0  0
   50.0746  -24.1354 -102.6775 O   0  0  0  0  0  0  0  0  0  0  0  0
   50.2879  -33.4251 -104.0977 N   0  0  0  0  0  0  0  0  0  0  0  0
   49.2058  -33.6502 -104.8828 C   0  0  0  0  0  0  0  0  0  0  0  0
   48.0059  -33.0942 -104.6142 N   0  0  0  0  0  0  0  0  0  0  0  0
   47.8228  -32.3650 -103.5014 C   0  0  0  0  0  0  0  0  0  0  0  0
   48.9379  -32.1340 -102.6150 C   0  0  0  0  0  0  0  0  0  0  0  0
   50.2021  -32.6944 -102.9660 C   0  0  0  0  0  0  0  0  0  0  0  0
   51.3124  -32.5044 -102.1686 N   0  0  0  0  0  0  0  0  0  0  0  0
   48.4893  -31.3933 -101.5947 N   0  0  0  0  0  0  0  0  0  0  0  0
   47.2221  -31.1611 -101.7670 C   0  0  0  0  0  0  0  0  0  0  0  0
   46.7559  -31.7286 -102.9298 N   0  0  0  0  0  0  0  0  0  0  0  0
  2  1  1  6  0  0  0
  2  3  1  0  0  0  0
  2  5  1  0  0  0  0
  3  4  1  0  0  0  0
  3 17  1  0  0  0  0
  5  6  1  0  0  0  0
  7  6  1  1  0  0  0
  7  8  1  0  0  0  0
  7  9  1  0  0  0  0
 10  9  1  1  0  0  0
 10 11  1  0  0  0  0
 10 12  1  0  0  0  0
 11 16  1  0  0  0  0
 12 13  1  6  0  0  0
 12 14  1  0  0  0  0
 14 15  1  6  0  0  0
 14 16  1  0  0  0  0
 16 27  1  1  0  0  0
 18 19  2  0  0  0  0
 18 23  1  0  0  0  0
 19 20  1  0  0  0  0
 20 21  2  0  0  0  0
 21 22  1  0  0  0  0
 21 27  1  0  0  0  0
 22 23  2  0  0  0  0
 22 25  1  0  0  0  0
 23 24  1  0  0  0  0
 25 26  2  0  0  0  0
 26 27  1  0  0  0  0
M  END
>  <CHROM.1>
-164.62402048,-164.88903691,-174.34397004,-76.96350628,-168.61687678,52.53265394
-100.47050893,46.85009300,-29.23951791,-103.25420010,-1.57902981,0.01226392
3.08993089

>  <Name>
ligand

>  <RI>
0

>  <Rbt.Current_Directory>
/home/itssahil/PROJECTS/Mol_Feturizer/New_Systems/rnas/4L81

>  <Rbt.Executable>
rbdock ($Id: //depot/dev/client3/rdock/2013.1/src/exe/rbdock.cxx#4 $)

>  <Rbt.Library>
libRbt.so (2013.1, Build901 2013/11/27)

>  <Rbt.Parameter_File>
/export/apps/rDock/src/rDock_2013.1_src/data/scripts/dock_solv.prm

>  <Rbt.Receptor>
prm/pocket_docking_5.prm

>  <SCORE>
-15.2401

>  <SCORE.INTER>
-13.5019

>  <SCORE.INTER.CONST>
1

>  <SCORE.INTER.POLAR>
0

>  <SCORE.INTER.ROT>
7

>  <SCORE.INTER.SOLV>
15.3229

>  <SCORE.INTER.VDW>
-22.3755

>  <SCORE.INTER.norm>
-0.500069

>  <SCORE.INTRA>
-1.73821

>  <SCORE.INTRA.DIHEDRAL>
-2.72916

>  <SCORE.INTRA.DIHEDRAL.0>
8.34559

>  <SCORE.INTRA.POLAR>
0

>  <SCORE.INTRA.POLAR.0>
0

>  <SCORE.INTRA.REPUL>
0

>  <SCORE.INTRA.REPUL.0>
0

>  <SCORE.INTRA.SOLV>
-1.30613

>  <SCORE.INTRA.SOLV.lig_0>
-48.829

>  <SCORE.INTRA.VDW>
0.279437

>  <SCORE.INTRA.VDW.0>
-1.77092

>  <SCORE.INTRA.norm>
-0.0643781

>  <SCORE.RESTR>
0

>  <SCORE.RESTR.CAVITY>
0

>  <SCORE.RESTR.norm>
0

>  <SCORE.SYSTEM>
0

>  <SCORE.SYSTEM.CONST>
0

>  <SCORE.SYSTEM.DIHEDRAL>
0

>  <SCORE.SYSTEM.SOLV>
0

>  <SCORE.SYSTEM.norm>
0

>  <SCORE.heavy>
27

>  <SCORE.norm>
-0.564447

>  <RMSD>
5.349

$$$$
ligand
 OpenBabel11021811503D
libRbt.so/2013.1/901 2013/11/27
 27 29  0  0  0  0  0  0  0  0999 V2000
   49.4472  -28.9443 -103.8967 N   0  0  0  0  0  0  0  0  0  0  0  0
   49.0088  -27.6312 -104.3826 C   0  0  2  0  0  0  0  0  0  0  0  0
   49.7188  -26.5423 -103.6061 C   0  0  0  0  0  0  0  0  0  0  0  0
   49.9551  -25.4658 -104.1334 O   0  0  0  0  0  0  0  0  0  0  0  0
   47.4937  -27.4511 -104.2169 C   0  0  0  0  0  0  0  0  0  0  0  0
   46.7349  -28.2734 -105.2488 C   0  0  0  0  0  0  0  0  0  0  0  0
   44.9546  -27.8451 -105.3512 S   0  0  2  0  0  0  0  0  0  0  0  0
   44.9136  -26.0548 -105.0155 C   0  0  0  0  0  0  0  0  0  0  0  0
   44.5329  -28.4480 -103.7179 C   0  0  0  0  0  0  0  0  0  0  0  0
   43.9736  -29.8458 -103.7138 C   0  0  1  0  0  0  0  0  0  0  0  0
   44.9916  -30.7299 -104.2129 O   0  0  0  0  0  0  0  0  0  0  0  0
   43.8355  -30.1360 -102.2735 C   0  0  1  0  0  0  0  0  0  0  0  0
   42.4897  -29.8988 -101.8638 O   0  0  0  0  0  0  0  0  0  0  0  0
   44.1390  -31.6009 -102.2086 C   0  0  1  0  0  0  0  0  0  0  0  0
   42.9408  -32.3721 -102.4343 O   0  0  0  0  0  0  0  0  0  0  0  0
   45.1681  -31.8781 -103.3454 C   0  0  2  0  0  0  0  0  0  0  0  0
   50.0300  -26.7183 -102.4411 O   0  0  0  0  0  0  0  0  0  0  0  0
   49.0889  -30.3135 -100.1240 N   0  0  0  0  0  0  0  0  0  0  0  0
   47.7787  -29.9710 -100.0600 C   0  0  0  0  0  0  0  0  0  0  0  0
   46.8703  -30.4752 -100.9210 N   0  0  0  0  0  0  0  0  0  0  0  0
   47.2537  -31.2708 -101.9327 C   0  0  0  0  0  0  0  0  0  0  0  0
   48.6456  -31.6285 -102.0636 C   0  0  0  0  0  0  0  0  0  0  0  0
   49.5639  -31.1176 -101.0986 C   0  0  0  0  0  0  0  0  0  0  0  0
   50.9073  -31.4277 -101.1586 N   0  0  0  0  0  0  0  0  0  0  0  0
   48.7557  -32.4137 -103.1416 N   0  0  0  0  0  0  0  0  0  0  0  0
   47.5813  -32.5600 -103.6789 C   0  0  0  0  0  0  0  0  0  0  0  0
   46.6130  -31.8845 -102.9733 N   0  0  0  0  0  0  0  0  0  0  0  0
  2  1  1  1  0  0  0
  2  3  1  0  0  0  0
  2  5  1  0  0  0  0
  3  4  1  0  0  0  0
  3 17  1  0  0  0  0
  5  6  1  0  0  0  0
  7  6  1  1  0  0  0
  7  8  1  0  0  0  0
  7  9  1  0  0  0  0
 10  9  1  1  0  0  0
 10 11  1  0  0  0  0
 10 12  1  0  0  0  0
 11 16  1  0  0  0  0
 12 13  1  6  0  0  0
 12 14  1  0  0  0  0
 14 15  1  6  0  0  0
 14 16  1  0  0  0  0
 16 27  1  1  0  0  0
 18 19  2  0  0  0  0
 18 23  1  0  0  0  0
 19 20  1  0  0  0  0
 20 21  2  0  0  0  0
 21 22  1  0  0  0  0
 21 27  1  0  0  0  0
 22 23  2  0  0  0  0
 22 25  1  0  0  0  0
 23 24  1  0  0  0  0
 25 26  2  0  0  0  0
 26 27  1  0  0  0  0
M  END
>  <CHROM.1>
150.04032454,-74.02579205,-167.80551628,33.88956134,-96.54068055,62.68744024
88.71289378,46.79724018,-29.59170816,-103.07672675,-0.38730035,0.23318909
2.62181798

>  <Name>
ligand

>  <RI>
0

>  <Rbt.Current_Directory>
/home/itssahil/PROJECTS/Mol_Feturizer/New_Systems/rnas/4L81

>  <Rbt.Executable>
rbdock ($Id: //depot/dev/client3/rdock/2013.1/src/exe/rbdock.cxx#4 $)

>  <Rbt.Library>
libRbt.so (2013.1, Build901 2013/11/27)

>  <Rbt.Parameter_File>
/export/apps/rDock/src/rDock_2013.1_src/data/scripts/dock_solv.prm

>  <Rbt.Receptor>
prm/pocket_docking_3.prm

>  <SCORE>
-13.2869

>  <SCORE.INTER>
-12.1076

>  <SCORE.INTER.CONST>
1

>  <SCORE.INTER.POLAR>
0

>  <SCORE.INTER.ROT>
7

>  <SCORE.INTER.SOLV>
15.7141

>  <SCORE.INTER.VDW>
-21.5764

>  <SCORE.INTER.norm>
-0.448429

>  <SCORE.INTRA>
-1.17934

>  <SCORE.INTRA.DIHEDRAL>
-0.958503

>  <SCORE.INTRA.DIHEDRAL.0>
8.34559

>  <SCORE.INTRA.POLAR>
0

>  <SCORE.INTRA.POLAR.0>
0

>  <SCORE.INTRA.REPUL>
0

>  <SCORE.INTRA.REPUL.0>
0

>  <SCORE.INTRA.SOLV>
1.06421

>  <SCORE.INTRA.SOLV.lig_0>
-48.829

>  <SCORE.INTRA.VDW>
-1.23219

>  <SCORE.INTRA.VDW.0>
-1.77092

>  <SCORE.INTRA.norm>
-0.0436791

>  <SCORE.RESTR>
0

>  <SCORE.RESTR.CAVITY>
0

>  <SCORE.RESTR.norm>
0

>  <SCORE.SYSTEM>
0

>  <SCORE.SYSTEM.CONST>
0

>  <SCORE.SYSTEM.DIHEDRAL>
0

>  <SCORE.SYSTEM.SOLV>
0

>  <SCORE.SYSTEM.norm>
0

>  <SCORE.heavy>
27

>  <SCORE.norm>
-0.492108

>  <RMSD>
5.359

$$$$
ligand
 OpenBabel11021811503D
libRbt.so/2013.1/901 2013/11/27
 27 29  0  0  0  0  0  0  0  0999 V2000
   45.6488  -31.8627 -103.0951 N   0  0  0  0  0  0  0  0  0  0  0  0
   45.4188  -30.6558 -102.2931 C   0  0  2  0  0  0  0  0  0  0  0  0
   44.1553  -30.8254 -101.4760 C   0  0  0  0  0  0  0  0  0  0  0  0
   44.1159  -30.4385 -100.3178 O   0  0  0  0  0  0  0  0  0  0  0  0
   45.2714  -29.4135 -103.1822 C   0  0  0  0  0  0  0  0  0  0  0  0
   45.1410  -28.1548 -102.3362 C   0  0  0  0  0  0  0  0  0  0  0  0
   45.0721  -26.6158 -103.3312 S   0  0  2  0  0  0  0  0  0  0  0  0
   44.0872  -27.0809 -104.7918 C   0  0  0  0  0  0  0  0  0  0  0  0
   46.7121  -26.7839 -104.0318 C   0  0  0  0  0  0  0  0  0  0  0  0
   47.8014  -26.2021 -103.1705 C   0  0  1  0  0  0  0  0  0  0  0  0
   48.2869  -27.2452 -102.3085 O   0  0  0  0  0  0  0  0  0  0  0  0
   48.8753  -25.9297 -104.1453 C   0  0  1  0  0  0  0  0  0  0  0  0
   48.8353  -24.5568 -104.5311 O   0  0  0  0  0  0  0  0  0  0  0  0
   50.1127  -26.2004 -103.3466 C   0  0  1  0  0  0  0  0  0  0  0  0
   50.5191  -25.0141 -102.6333 O   0  0  0  0  0  0  0  0  0  0  0  0
   49.7345  -27.3227 -102.3339 C   0  0  2  0  0  0  0  0  0  0  0  0
   43.1590  -31.3178 -101.9759 O   0  0  0  0  0  0  0  0  0  0  0  0
   51.1796  -32.2443 -100.9602 N   0  0  0  0  0  0  0  0  0  0  0  0
   51.0340  -31.1678 -100.1492 C   0  0  0  0  0  0  0  0  0  0  0  0
   50.6175  -29.9743 -100.6215 N   0  0  0  0  0  0  0  0  0  0  0  0
   50.4170  -29.7905 -101.9367 C   0  0  0  0  0  0  0  0  0  0  0  0
   50.6002  -30.8990 -102.8423 C   0  0  0  0  0  0  0  0  0  0  0  0
   50.9876  -32.1576 -102.2935 C   0  0  0  0  0  0  0  0  0  0  0  0
   51.1708  -33.2617 -103.1011 N   0  0  0  0  0  0  0  0  0  0  0  0
   50.3454  -30.4511 -104.0773 N   0  0  0  0  0  0  0  0  0  0  0  0
   50.0371  -29.1900 -104.0136 C   0  0  0  0  0  0  0  0  0  0  0  0
   50.0569  -28.7278 -102.7183 N   0  0  0  0  0  0  0  0  0  0  0  0
  2  1  1  6  0  0  0
  2  3  1  0  0  0  0
  2  5  1  0  0  0  0
  3  4  1  0  0  0  0
  3 17  1  0  0  0  0
  5  6  1  0  0  0  0
  7  6  1  1  0  0  0
  7  8  1  0  0  0  0
  7  9  1  0  0  0  0
 10  9  1  6  0  0  0
 10 11  1  0  0  0  0
 10 12  1  0  0  0  0
 11 16  1  0  0  0  0
 12 13  1  1  0  0  0
 12 14  1  0  0  0  0
 14 15  1  1  0  0  0
 14 16  1  0  0  0  0
 16 27  1  6  0  0  0
 18 19  2  0  0  0  0
 18 23  1  0  0  0  0
 19 20  1  0  0  0  0
 20 21  2  0  0  0  0
 21 22  1  0  0  0  0
 21 27  1  0  0  0  0
 22 23  2  0  0  0  0
 22 25  1  0  0  0  0
 23 24  1  0  0  0  0
 25 26  2  0  0  0  0
 26 27  1  0  0  0  0
M  END
>  <CHROM.1>
139.10499115,-175.62581190,176.19441374,37.66037317,-86.66011978,91.27001490
-99.42289885,47.89760657,-28.83981720,-102.70744270,2.72561926,-0.00936766
-0.29997882

>  <Name>
ligand

>  <RI>
0

>  <Rbt.Current_Directory>
/home/itssahil/PROJECTS/Mol_Feturizer/New_Systems/rnas/4L81

>  <Rbt.Executable>
rbdock ($Id: //depot/dev/client3/rdock/2013.1/src/exe/rbdock.cxx#4 $)

>  <Rbt.Library>
libRbt.so (2013.1, Build901 2013/11/27)

>  <Rbt.Parameter_File>
/export/apps/rDock/src/rDock_2013.1_src/data/scripts/dock_solv.prm

>  <Rbt.Receptor>
prm/pocket_docking_3.prm

>  <SCORE>
-16.6992

>  <SCORE.INTER>
-16.0217

>  <SCORE.INTER.CONST>
1

>  <SCORE.INTER.POLAR>
0

>  <SCORE.INTER.ROT>
7

>  <SCORE.INTER.SOLV>
14.6853

>  <SCORE.INTER.VDW>
-23.8429

>  <SCORE.INTER.norm>
-0.593397

>  <SCORE.INTRA>
-0.67751

>  <SCORE.INTRA.DIHEDRAL>
-0.814209

>  <SCORE.INTRA.DIHEDRAL.0>
8.34559

>  <SCORE.INTRA.POLAR>
0

>  <SCORE.INTRA.POLAR.0>
0

>  <SCORE.INTRA.REPUL>
0

>  <SCORE.INTRA.REPUL.0>
0

>  <SCORE.INTRA.SOLV>
-1.28545

>  <SCORE.INTRA.SOLV.lig_0>
-48.829

>  <SCORE.INTRA.VDW>
0.372319

>  <SCORE.INTRA.VDW.0>
-1.77092

>  <SCORE.INTRA.norm>
-0.025093

>  <SCORE.RESTR>
0

>  <SCORE.RESTR.CAVITY>
0

>  <SCORE.RESTR.norm>
0

>  <SCORE.SYSTEM>
0

>  <SCORE.SYSTEM.CONST>
0

>  <SCORE.SYSTEM.DIHEDRAL>
0

>  <SCORE.SYSTEM.SOLV>
0

>  <SCORE.SYSTEM.norm>
0

>  <SCORE.heavy>
27

>  <SCORE.norm>
-0.61849

>  <RMSD>
5.376

$$$$
ligand
 OpenBabel11021811503D
libRbt.so/2013.1/901 2013/11/27
 27 29  0  0  0  0  0  0  0  0999 V2000
   48.7367  -23.9864 -105.0211 N   0  0  0  0  0  0  0  0  0  0  0  0
   48.8566  -24.9880 -103.9557 C   0  0  2  0  0  0  0  0  0  0  0  0
   50.3132  -25.3587 -103.7724 C   0  0  0  0  0  0  0  0  0  0  0  0
   50.6862  -25.8913 -102.7380 O   0  0  0  0  0  0  0  0  0  0  0  0
   48.0601  -26.2568 -104.2893 C   0  0  0  0  0  0  0  0  0  0  0  0
   46.5830  -25.9368 -104.4700 C   0  0  0  0  0  0  0  0  0  0  0  0
   45.5540  -27.4195 -104.7962 S   0  0  2  0  0  0  0  0  0  0  0  0
   43.8574  -26.7631 -104.8964 C   0  0  0  0  0  0  0  0  0  0  0  0
   45.5332  -27.9974 -103.1009 C   0  0  0  0  0  0  0  0  0  0  0  0
   44.5661  -29.1253 -102.8571 C   0  0  1  0  0  0  0  0  0  0  0  0
   44.9398  -30.2195 -103.7115 O   0  0  0  0  0  0  0  0  0  0  0  0
   44.8912  -29.5395 -101.4786 C   0  0  1  0  0  0  0  0  0  0  0  0
   43.9762  -28.9329 -100.5675 O   0  0  0  0  0  0  0  0  0  0  0  0
   44.6629  -31.0187 -101.5235 C   0  0  1  0  0  0  0  0  0  0  0  0
   43.2808  -31.3219 -101.2420 O   0  0  0  0  0  0  0  0  0  0  0  0
   45.0174  -31.4652 -102.9737 C   0  0  2  0  0  0  0  0  0  0  0  0
   51.1174  -25.1598 -104.6660 O   0  0  0  0  0  0  0  0  0  0  0  0
   50.1347  -31.7308 -101.5807 N   0  0  0  0  0  0  0  0  0  0  0  0
   49.1547  -30.9988 -100.9960 C   0  0  0  0  0  0  0  0  0  0  0  0
   47.8763  -31.0531 -101.4247 N   0  0  0  0  0  0  0  0  0  0  0  0
   47.5480  -31.7731 -102.5097 C   0  0  0  0  0  0  0  0  0  0  0  0
   48.5679  -32.5358 -103.1884 C   0  0  0  0  0  0  0  0  0  0  0  0
   49.8957  -32.4935 -102.6684 C   0  0  0  0  0  0  0  0  0  0  0  0
   50.9172  -33.2065 -103.2625 N   0  0  0  0  0  0  0  0  0  0  0  0
   47.9839  -33.1485 -104.2249 N   0  0  0  0  0  0  0  0  0  0  0  0
   46.7240  -32.8298 -104.2484 C   0  0  0  0  0  0  0  0  0  0  0  0
   46.3939  -31.9897 -103.2107 N   0  0  0  0  0  0  0  0  0  0  0  0
  2  1  1  6  0  0  0
  2  3  1  0  0  0  0
  2  5  1  0  0  0  0
  3  4  1  0  0  0  0
  3 17  1  0  0  0  0
  5  6  1  0  0  0  0
  7  6  1  1  0  0  0
  7  8  1  0  0  0  0
  7  9  1  0  0  0  0
 10  9  1  6  0  0  0
 10 11  1  0  0  0  0
 10 12  1  0  0  0  0
 11 16  1  0  0  0  0
 12 13  1  1  0  0  0
 12 14  1  0  0  0  0
 14 15  1  6  0  0  0
 14 16  1  0  0  0  0
 16 27  1  1  0  0  0
 18 19  2  0  0  0  0
 18 23  1  0  0  0  0
 19 20  1  0  0  0  0
 20 21  2  0  0  0  0
 21 22  1  0  0  0  0
 21 27  1  0  0  0  0
 22 23  2  0  0  0  0
 22 25  1  0  0  0  0
 23 24  1  0  0  0  0
 25 26  2  0  0  0  0
 26 27  1  0  0  0  0
M  END
>  <CHROM.1>
160.79877278,-59.74420466,-177.37716289,177.65742219,170.08874508,59.40796929
89.71442039,47.13028197,-29.20259488,-103.17155458,-1.29270810,-0.06499494
2.88548982

>  <Name>
ligand

>  <RI>
0

>  <Rbt.Current_Directory>
/home/itssahil/PROJECTS/Mol_Feturizer/New_Systems/rnas/4L81

>  <Rbt.Executable>
rbdock ($Id: //depot/dev/client3/rdock/2013.1/src/exe/rbdock.cxx#4 $)

>  <Rbt.Library>
libRbt.so (2013.1, Build901 2013/11/27)

>  <Rbt.Parameter_File>
/export/apps/rDock/src/rDock_2013.1_src/data/scripts/dock_solv.prm

>  <Rbt.Receptor>
prm/pocket_docking_3.prm

>  <SCORE>
-16.9476

>  <SCORE.INTER>
-13.5323

>  <SCORE.INTER.CONST>
1

>  <SCORE.INTER.POLAR>
0

>  <SCORE.INTER.ROT>
7

>  <SCORE.INTER.SOLV>
11.9304

>  <SCORE.INTER.VDW>
-21.265

>  <SCORE.INTER.norm>
-0.501197

>  <SCORE.INTRA>
-3.43212

>  <SCORE.INTRA.DIHEDRAL>
-4.94973

>  <SCORE.INTRA.DIHEDRAL.0>
8.34559

>  <SCORE.INTRA.POLAR>
0

>  <SCORE.INTRA.POLAR.0>
0

>  <SCORE.INTRA.REPUL>
0

>  <SCORE.INTRA.REPUL.0>
0

>  <SCORE.INTRA.SOLV>
-0.587485

>  <SCORE.INTRA.SOLV.lig_0>
-48.829

>  <SCORE.INTRA.VDW>
-0.663509

>  <SCORE.INTRA.VDW.0>
-1.77092

>  <SCORE.INTRA.norm>
-0.127116

>  <SCORE.RESTR>
0.0168401

>  <SCORE.RESTR.CAVITY>
0.0168401

>  <SCORE.RESTR.norm>
0.000623707

>  <SCORE.SYSTEM>
0

>  <SCORE.SYSTEM.CONST>
0

>  <SCORE.SYSTEM.DIHEDRAL>
0

>  <SCORE.SYSTEM.SOLV>
0

>  <SCORE.SYSTEM.norm>
0

>  <SCORE.heavy>
27

>  <SCORE.norm>
-0.627689

>  <RMSD>
5.379

$$$$
ligand
 OpenBabel11021811503D
libRbt.so/2013.1/901 2013/11/27
 27 29  0  0  0  0  0  0  0  0999 V2000
   44.5339  -30.6419 -100.4393 N   0  0  0  0  0  0  0  0  0  0  0  0
   45.6124  -29.8907 -101.0913 C   0  0  2  0  0  0  0  0  0  0  0  0
   46.7064  -29.6014 -100.0852 C   0  0  0  0  0  0  0  0  0  0  0  0
   47.8755  -29.5757 -100.4391 O   0  0  0  0  0  0  0  0  0  0  0  0
   45.1011  -28.5618 -101.6639 C   0  0  0  0  0  0  0  0  0  0  0  0
   46.1278  -27.9469 -102.6045 C   0  0  0  0  0  0  0  0  0  0  0  0
   45.5284  -26.4285 -103.4403 S   0  0  2  0  0  0  0  0  0  0  0  0
   44.2057  -27.0264 -104.5415 C   0  0  0  0  0  0  0  0  0  0  0  0
   46.8661  -26.3402 -104.6283 C   0  0  0  0  0  0  0  0  0  0  0  0
   48.0965  -25.6481 -104.1050 C   0  0  1  0  0  0  0  0  0  0  0  0
   48.6921  -26.4988 -103.1108 O   0  0  0  0  0  0  0  0  0  0  0  0
   49.0011  -25.6684 -105.2707 C   0  0  1  0  0  0  0  0  0  0  0  0
   48.9314  -24.4175 -105.9532 O   0  0  0  0  0  0  0  0  0  0  0  0
   50.3463  -25.8285 -104.6329 C   0  0  1  0  0  0  0  0  0  0  0  0
   50.8938  -24.5397 -104.2858 O   0  0  0  0  0  0  0  0  0  0  0  0
   50.1133  -26.6691 -103.3417 C   0  0  2  0  0  0  0  0  0  0  0  0
   46.4280  -29.3596  -98.9238 O   0  0  0  0  0  0  0  0  0  0  0  0
   48.7535  -31.3991 -105.3358 N   0  0  0  0  0  0  0  0  0  0  0  0
   48.1513  -30.2045 -105.5550 C   0  0  0  0  0  0  0  0  0  0  0  0
   48.6251  -29.0613 -105.0168 N   0  0  0  0  0  0  0  0  0  0  0  0
   49.6656  -29.0838 -104.1681 C   0  0  0  0  0  0  0  0  0  0  0  0
   50.3118  -30.3401 -103.8737 C   0  0  0  0  0  0  0  0  0  0  0  0
   49.8130  -31.5167 -104.5077 C   0  0  0  0  0  0  0  0  0  0  0  0
   50.3899  -32.7494 -104.2787 N   0  0  0  0  0  0  0  0  0  0  0  0
   51.3011  -30.0864 -103.0089 N   0  0  0  0  0  0  0  0  0  0  0  0
   51.3143  -28.8139 -102.7441 C   0  0  0  0  0  0  0  0  0  0  0  0
   50.3334  -28.1419 -103.4354 N   0  0  0  0  0  0  0  0  0  0  0  0
  2  1  1  1  0  0  0
  2  3  1  0  0  0  0
  2  5  1  0  0  0  0
  3  4  1  0  0  0  0
  3 17  1  0  0  0  0
  5  6  1  0  0  0  0
  7  6  1  1  0  0  0
  7  8  1  0  0  0  0
  7  9  1  0  0  0  0
 10  9  1  6  0  0  0
 10 11  1  0  0  0  0
 10 12  1  0  0  0  0
 11 16  1  0  0  0  0
 12 13  1  1  0  0  0
 12 14  1  0  0  0  0
 14 15  1  1  0  0  0
 14 16  1  0  0  0  0
 16 27  1  6  0  0  0
 18 19  2  0  0  0  0
 18 23  1  0  0  0  0
 19 20  1  0  0  0  0
 20 21  2  0  0  0  0
 21 22  1  0  0  0  0
 21 27  1  0  0  0  0
 22 23  2  0  0  0  0
 22 25  1  0  0  0  0
 23 24  1  0  0  0  0
 25 26  2  0  0  0  0
 26 27  1  0  0  0  0
M  END
>  <CHROM.1>
145.95408706,-166.88827636,175.03130039,-67.29360281,-84.66163211,69.72260367
48.85211306,48.11803157,-28.21314944,-103.32922337,2.32650315,-0.49075631
2.73276213

>  <Name>
ligand

>  <RI>
0

>  <Rbt.Current_Directory>
/home/itssahil/PROJECTS/Mol_Feturizer/New_Systems/rnas/4L81

>  <Rbt.Executable>
rbdock ($Id: //depot/dev/client3/rdock/2013.1/src/exe/rbdock.cxx#4 $)

>  <Rbt.Library>
libRbt.so (2013.1, Build901 2013/11/27)

>  <Rbt.Parameter_File>
/export/apps/rDock/src/rDock_2013.1_src/data/scripts/dock_solv.prm

>  <Rbt.Receptor>
prm/pocket_docking_5.prm

>  <SCORE>
-15.2126

>  <SCORE.INTER>
-10.777

>  <SCORE.INTER.CONST>
1

>  <SCORE.INTER.POLAR>
0

>  <SCORE.INTER.ROT>
7

>  <SCORE.INTER.SOLV>
15.0319

>  <SCORE.INTER.VDW>
-20.462

>  <SCORE.INTER.norm>
-0.399149

>  <SCORE.INTRA>
-4.43556

>  <SCORE.INTRA.DIHEDRAL>
-3.19522

>  <SCORE.INTRA.DIHEDRAL.0>
8.34559

>  <SCORE.INTRA.POLAR>
0

>  <SCORE.INTRA.POLAR.0>
0

>  <SCORE.INTRA.REPUL>
0

>  <SCORE.INTRA.REPUL.0>
0

>  <SCORE.INTRA.SOLV>
-1.21486

>  <SCORE.INTRA.SOLV.lig_0>
-48.829

>  <SCORE.INTRA.VDW>
-2.23052

>  <SCORE.INTRA.VDW.0>
-1.77092

>  <SCORE.INTRA.norm>
-0.16428

>  <SCORE.RESTR>
0

>  <SCORE.RESTR.CAVITY>
0

>  <SCORE.RESTR.norm>
0

>  <SCORE.SYSTEM>
0

>  <SCORE.SYSTEM.CONST>
0

>  <SCORE.SYSTEM.DIHEDRAL>
0

>  <SCORE.SYSTEM.SOLV>
0

>  <SCORE.SYSTEM.norm>
0

>  <SCORE.heavy>
27

>  <SCORE.norm>
-0.563429

>  <RMSD>
5.379

$$$$
ligand
 OpenBabel11021811503D
libRbt.so/2013.1/901 2013/11/27
 27 29  0  0  0  0  0  0  0  0999 V2000
   48.9273  -30.2253 -105.5390 N   0  0  0  0  0  0  0  0  0  0  0  0
   48.8359  -28.9048 -104.9058 C   0  0  2  0  0  0  0  0  0  0  0  0
   48.5702  -27.8546 -105.9637 C   0  0  0  0  0  0  0  0  0  0  0  0
   49.4804  -27.4523 -106.6725 O   0  0  0  0  0  0  0  0  0  0  0  0
   50.1332  -28.5480 -104.1676 C   0  0  0  0  0  0  0  0  0  0  0  0
   50.4145  -29.5466 -103.0538 C   0  0  0  0  0  0  0  0  0  0  0  0
   49.2612  -29.3960 -101.6359 S   0  0  2  0  0  0  0  0  0  0  0  0
   49.8373  -30.6668 -100.4643 C   0  0  0  0  0  0  0  0  0  0  0  0
   47.9202  -30.3047 -102.4007 C   0  0  0  0  0  0  0  0  0  0  0  0
   46.5893  -30.1024 -101.7265 C   0  0  1  0  0  0  0  0  0  0  0  0
   46.3946  -28.6890 -101.5496 O   0  0  0  0  0  0  0  0  0  0  0  0
   45.6314  -30.5311 -102.7639 C   0  0  1  0  0  0  0  0  0  0  0  0
   45.2323  -31.8790 -102.5200 O   0  0  0  0  0  0  0  0  0  0  0  0
   44.4752  -29.6068 -102.5377 C   0  0  1  0  0  0  0  0  0  0  0  0
   43.5808  -30.1548 -101.5473 O   0  0  0  0  0  0  0  0  0  0  0  0
   45.0869  -28.2717 -102.0167 C   0  0  2  0  0  0  0  0  0  0  0  0
   47.4426  -27.4271 -106.1388 O   0  0  0  0  0  0  0  0  0  0  0  0
   48.3224  -24.6281 -104.1271 N   0  0  0  0  0  0  0  0  0  0  0  0
   48.5676  -25.4388 -103.0685 C   0  0  0  0  0  0  0  0  0  0  0  0
   47.6700  -26.3579 -102.6554 N   0  0  0  0  0  0  0  0  0  0  0  0
   46.4589  -26.4389 -103.2301 C   0  0  0  0  0  0  0  0  0  0  0  0
   46.1397  -25.5665 -104.3344 C   0  0  0  0  0  0  0  0  0  0  0  0
   47.1382  -24.6475 -104.7746 C   0  0  0  0  0  0  0  0  0  0  0  0
   46.9032  -23.7913 -105.8312 N   0  0  0  0  0  0  0  0  0  0  0  0
   44.8869  -25.8454 -104.7134 N   0  0  0  0  0  0  0  0  0  0  0  0
   44.4145  -26.7856 -103.9503 C   0  0  0  0  0  0  0  0  0  0  0  0
   45.3407  -27.1978 -103.0209 N   0  0  0  0  0  0  0  0  0  0  0  0
  2  1  1  6  0  0  0
  2  3  1  0  0  0  0
  2  5  1  0  0  0  0
  3  4  1  0  0  0  0
  3 17  1  0  0  0  0
  5  6  1  0  0  0  0
  7  6  1  6  0  0  0
  7  8  1  0  0  0  0
  7  9  1  0  0  0  0
 10  9  1  6  0  0  0
 10 11  1  0  0  0  0
 10 12  1  0  0  0  0
 11 16  1  0  0  0  0
 12 13  1  1  0  0  0
 12 14  1  0  0  0  0
 14 15  1  1  0  0  0
 14 16  1  0  0  0  0
 16 27  1  6  0  0  0
 18 19  2  0  0  0  0
 18 23  1  0  0  0  0
 19 20  1  0  0  0  0
 20 21  2  0  0  0  0
 21 22  1  0  0  0  0
 21 27  1  0  0  0  0
 22 23  2  0  0  0  0
 22 25  1  0  0  0  0
 23 24  1  0  0  0  0
 25 26  2  0  0  0  0
 26 27  1  0  0  0  0
M  END
>  <CHROM.1>
-78.08379017,-61.47142471,-70.87207854,-179.07696093,-163.47090939,48.84841574
-18.08216396,47.27953993,-28.14853167,-103.42642370,-1.66562825,0.23371186
-0.56504405

>  <Name>
ligand

>  <RI>
0

>  <Rbt.Current_Directory>
/home/itssahil/PROJECTS/Mol_Feturizer/New_Systems/rnas/4L81

>  <Rbt.Executable>
rbdock ($Id: //depot/dev/client3/rdock/2013.1/src/exe/rbdock.cxx#4 $)

>  <Rbt.Library>
libRbt.so (2013.1, Build901 2013/11/27)

>  <Rbt.Parameter_File>
/export/apps/rDock/src/rDock_2013.1_src/data/scripts/dock_solv.prm

>  <Rbt.Receptor>
prm/pocket_docking_5.prm

>  <SCORE>
-13.8096

>  <SCORE.INTER>
-10.0121

>  <SCORE.INTER.CONST>
1

>  <SCORE.INTER.POLAR>
0

>  <SCORE.INTER.ROT>
7

>  <SCORE.INTER.SOLV>
9.14802

>  <SCORE.INTER.VDW>
-17.9908

>  <SCORE.INTER.norm>
-0.370819

>  <SCORE.INTRA>
-3.79747

>  <SCORE.INTRA.DIHEDRAL>
-2.46915

>  <SCORE.INTRA.DIHEDRAL.0>
8.34559

>  <SCORE.INTRA.POLAR>
0

>  <SCORE.INTRA.POLAR.0>
0

>  <SCORE.INTRA.REPUL>
0

>  <SCORE.INTRA.REPUL.0>
0

>  <SCORE.INTRA.SOLV>
1.60276

>  <SCORE.INTRA.SOLV.lig_0>
-48.829

>  <SCORE.INTRA.VDW>
-3.36427

>  <SCORE.INTRA.VDW.0>
-1.77092

>  <SCORE.INTRA.norm>
-0.140647

>  <SCORE.RESTR>
0

>  <SCORE.RESTR.CAVITY>
0

>  <SCORE.RESTR.norm>
0

>  <SCORE.SYSTEM>
0

>  <SCORE.SYSTEM.CONST>
0

>  <SCORE.SYSTEM.DIHEDRAL>
0

>  <SCORE.SYSTEM.SOLV>
0

>  <SCORE.SYSTEM.norm>
0

>  <SCORE.heavy>
27

>  <SCORE.norm>
-0.511466

>  <RMSD>
5.384

$$$$
ligand
 OpenBabel11021811503D
libRbt.so/2013.1/901 2013/11/27
 27 29  0  0  0  0  0  0  0  0999 V2000
   48.8315  -23.2310 -102.4299 N   0  0  0  0  0  0  0  0  0  0  0  0
   49.5743  -24.2375 -103.1966 C   0  0  2  0  0  0  0  0  0  0  0  0
   50.4763  -23.5462 -104.1972 C   0  0  0  0  0  0  0  0  0  0  0  0
   50.6499  -22.3384 -104.1360 O   0  0  0  0  0  0  0  0  0  0  0  0
   48.6249  -25.1778 -103.9516 C   0  0  0  0  0  0  0  0  0  0  0  0
   47.8009  -26.0100 -102.9794 C   0  0  0  0  0  0  0  0  0  0  0  0
   46.6891  -27.2081 -103.8113 S   0  0  2  0  0  0  0  0  0  0  0  0
   45.2987  -26.1851 -104.3942 C   0  0  0  0  0  0  0  0  0  0  0  0
   45.9579  -27.8463 -102.3057 C   0  0  0  0  0  0  0  0  0  0  0  0
   44.8454  -28.8326 -102.5433 C   0  0  1  0  0  0  0  0  0  0  0  0
   45.2503  -29.7056 -103.6115 O   0  0  0  0  0  0  0  0  0  0  0  0
   44.8614  -29.6433 -101.3103 C   0  0  1  0  0  0  0  0  0  0  0  0
   43.8643  -29.1645 -100.4092 O   0  0  0  0  0  0  0  0  0  0  0  0
   44.4858  -31.0029 -101.8128 C   0  0  1  0  0  0  0  0  0  0  0  0
   43.0509  -31.1497 -101.8387 O   0  0  0  0  0  0  0  0  0  0  0  0
   45.0532  -31.0985 -103.2609 C   0  0  2  0  0  0  0  0  0  0  0  0
   51.0613  -24.1918 -105.0492 O   0  0  0  0  0  0  0  0  0  0  0  0
   48.5747  -33.6121 -106.3397 N   0  0  0  0  0  0  0  0  0  0  0  0
   47.3288  -33.1970 -106.6763 C   0  0  0  0  0  0  0  0  0  0  0  0
   46.5445  -32.5271 -105.8062 N   0  0  0  0  0  0  0  0  0  0  0  0
   46.9432  -32.3262 -104.5396 C   0  0  0  0  0  0  0  0  0  0  0  0
   48.2463  -32.7879 -104.1260 C   0  0  0  0  0  0  0  0  0  0  0  0
   49.0652  -33.4425 -105.0936 C   0  0  0  0  0  0  0  0  0  0  0  0
   50.3258  -33.9004 -104.7684 N   0  0  0  0  0  0  0  0  0  0  0  0
   48.3902  -32.4703 -102.8340 N   0  0  0  0  0  0  0  0  0  0  0  0
   47.3104  -31.8749 -102.4230 C   0  0  0  0  0  0  0  0  0  0  0  0
   46.3845  -31.7502 -103.4323 N   0  0  0  0  0  0  0  0  0  0  0  0
  2  1  1  6  0  0  0
  2  3  1  0  0  0  0
  2  5  1  0  0  0  0
  3  4  1  0  0  0  0
  3 17  1  0  0  0  0
  5  6  1  0  0  0  0
  7  6  1  1  0  0  0
  7  8  1  0  0  0  0
  7  9  1  0  0  0  0
 10  9  1  1  0  0  0
 10 11  1  0  0  0  0
 10 12  1  0  0  0  0
 11 16  1  0  0  0  0
 12 13  1  1  0  0  0
 12 14  1  0  0  0  0
 14 15  1  6  0  0  0
 14 16  1  0  0  0  0
 16 27  1  1  0  0  0
 18 19  2  0  0  0  0
 18 23  1  0  0  0  0
 19 20  1  0  0  0  0
 20 21  2  0  0  0  0
 21 22  1  0  0  0  0
 21 27  1  0  0  0  0
 22 23  2  0  0  0  0
 22 25  1  0  0  0  0
 23 24  1  0  0  0  0
 25 26  2  0  0  0  0
 26 27  1  0  0  0  0
M  END
>  <CHROM.1>
10.84719695,-65.40630782,-177.67913429,-77.45662832,175.08805309,42.09043777
-88.43180875,47.18628884,-28.99510489,-103.58643882,1.24078446,0.52080975
0.19897592

>  <Name>
ligand

>  <RI>
0

>  <Rbt.Current_Directory>
/home/itssahil/PROJECTS/Mol_Feturizer/New_Systems/rnas/4L81

>  <Rbt.Executable>
rbdock ($Id: //depot/dev/client3/rdock/2013.1/src/exe/rbdock.cxx#4 $)

>  <Rbt.Library>
libRbt.so (2013.1, Build901 2013/11/27)

>  <Rbt.Parameter_File>
/export/apps/rDock/src/rDock_2013.1_src/data/scripts/dock_solv.prm

>  <Rbt.Receptor>
prm/pocket_docking_6.prm

>  <SCORE>
-14.4127

>  <SCORE.INTER>
-12.2959

>  <SCORE.INTER.CONST>
1

>  <SCORE.INTER.POLAR>
0

>  <SCORE.INTER.ROT>
7

>  <SCORE.INTER.SOLV>
13.5774

>  <SCORE.INTER.VDW>
-20.9897

>  <SCORE.INTER.norm>
-0.455405

>  <SCORE.INTRA>
-2.11676

>  <SCORE.INTRA.DIHEDRAL>
-3.79874

>  <SCORE.INTRA.DIHEDRAL.0>
8.34559

>  <SCORE.INTRA.POLAR>
0

>  <SCORE.INTRA.POLAR.0>
0

>  <SCORE.INTRA.REPUL>
0

>  <SCORE.INTRA.REPUL.0>
0

>  <SCORE.INTRA.SOLV>
-0.615756

>  <SCORE.INTRA.SOLV.lig_0>
-48.829

>  <SCORE.INTRA.VDW>
0.0904857

>  <SCORE.INTRA.VDW.0>
-1.77092

>  <SCORE.INTRA.norm>
-0.0783986

>  <SCORE.RESTR>
0

>  <SCORE.RESTR.CAVITY>
0

>  <SCORE.RESTR.norm>
0

>  <SCORE.SYSTEM>
0

>  <SCORE.SYSTEM.CONST>
0

>  <SCORE.SYSTEM.DIHEDRAL>
0

>  <SCORE.SYSTEM.SOLV>
0

>  <SCORE.SYSTEM.norm>
0

>  <SCORE.heavy>
27

>  <SCORE.norm>
-0.533803

>  <RMSD>
5.389

$$$$
ligand
 OpenBabel11021811503D
libRbt.so/2013.1/901 2013/11/27
 27 29  0  0  0  0  0  0  0  0999 V2000
   47.0444  -31.0432 -103.9774 N   0  0  0  0  0  0  0  0  0  0  0  0
   47.6242  -30.6512 -105.2670 C   0  0  2  0  0  0  0  0  0  0  0  0
   49.1046  -30.9690 -105.2729 C   0  0  0  0  0  0  0  0  0  0  0  0
   49.5545  -31.7862 -106.0619 O   0  0  0  0  0  0  0  0  0  0  0  0
   47.4380  -29.1508 -105.5306 C   0  0  0  0  0  0  0  0  0  0  0  0
   47.7948  -28.8057 -106.9695 C   0  0  0  0  0  0  0  0  0  0  0  0
   47.6213  -27.0204 -107.3519 S   0  0  2  0  0  0  0  0  0  0  0  0
   48.1540  -26.8897 -109.0893 C   0  0  0  0  0  0  0  0  0  0  0  0
   49.1435  -26.5189 -106.5517 C   0  0  0  0  0  0  0  0  0  0  0  0
   48.9688  -25.3905 -105.5703 C   0  0  1  0  0  0  0  0  0  0  0  0
   48.0766  -25.8393 -104.5362 O   0  0  0  0  0  0  0  0  0  0  0  0
   50.3058  -25.2860 -104.9545 C   0  0  1  0  0  0  0  0  0  0  0  0
   51.0457  -24.2445 -105.5896 O   0  0  0  0  0  0  0  0  0  0  0  0
   49.9827  -24.8973 -103.5451 C   0  0  1  0  0  0  0  0  0  0  0  0
   49.8673  -23.4636 -103.4337 O   0  0  0  0  0  0  0  0  0  0  0  0
   48.6133  -25.5649 -103.2176 C   0  0  2  0  0  0  0  0  0  0  0  0
   49.8628  -30.3895 -104.5152 O   0  0  0  0  0  0  0  0  0  0  0  0
   51.1914  -30.0238 -101.9252 N   0  0  0  0  0  0  0  0  0  0  0  0
   51.6286  -29.0155 -102.7190 C   0  0  0  0  0  0  0  0  0  0  0  0
   50.8863  -27.9094 -102.9353 N   0  0  0  0  0  0  0  0  0  0  0  0
   49.6429  -27.8111 -102.4374 C   0  0  0  0  0  0  0  0  0  0  0  0
   49.1210  -28.8799 -101.6203 C   0  0  0  0  0  0  0  0  0  0  0  0
   49.9605  -30.0063 -101.3714 C   0  0  0  0  0  0  0  0  0  0  0  0
   49.5283  -31.0591 -100.5907 N   0  0  0  0  0  0  0  0  0  0  0  0
   47.8779  -28.5374 -101.2623 N   0  0  0  0  0  0  0  0  0  0  0  0
   47.5921  -27.3814 -101.7832 C   0  0  0  0  0  0  0  0  0  0  0  0
   48.6445  -26.8797 -102.5129 N   0  0  0  0  0  0  0  0  0  0  0  0
  2  1  1  1  0  0  0
  2  3  1  0  0  0  0
  2  5  1  0  0  0  0
  3  4  1  0  0  0  0
  3 17  1  0  0  0  0
  5  6  1  0  0  0  0
  7  6  1  1  0  0  0
  7  8  1  0  0  0  0
  7  9  1  0  0  0  0
 10  9  1  6  0  0  0
 10 11  1  0  0  0  0
 10 12  1  0  0  0  0
 11 16  1  0  0  0  0
 12 13  1  6  0  0  0
 12 14  1  0  0  0  0
 14 15  1  6  0  0  0
 14 16  1  0  0  0  0
 16 27  1  1  0  0  0
 18 19  2  0  0  0  0
 18 23  1  0  0  0  0
 19 20  1  0  0  0  0
 20 21  2  0  0  0  0
 21 22  1  0  0  0  0
 21 27  1  0  0  0  0
 22 23  2  0  0  0  0
 22 25  1  0  0  0  0
 23 24  1  0  0  0  0
 25 26  2  0  0  0  0
 26 27  1  0  0  0  0
M  END
>  <CHROM.1>
116.73971098,-169.03447936,-179.09351028,178.25783886,-128.31629831,61.41126073
91.39754743,49.05196433,-27.89873187,-104.32138993,1.35478102,1.24169972
2.69861267

>  <Name>
ligand

>  <RI>
0

>  <Rbt.Current_Directory>
/home/itssahil/PROJECTS/Mol_Feturizer/New_Systems/rnas/4L81

>  <Rbt.Executable>
rbdock ($Id: //depot/dev/client3/rdock/2013.1/src/exe/rbdock.cxx#4 $)

>  <Rbt.Library>
libRbt.so (2013.1, Build901 2013/11/27)

>  <Rbt.Parameter_File>
/export/apps/rDock/src/rDock_2013.1_src/data/scripts/dock_solv.prm

>  <Rbt.Receptor>
prm/pocket_docking_5.prm

>  <SCORE>
-10.4167

>  <SCORE.INTER>
-6.7053

>  <SCORE.INTER.CONST>
1

>  <SCORE.INTER.POLAR>
0

>  <SCORE.INTER.ROT>
7

>  <SCORE.INTER.SOLV>
11.601

>  <SCORE.INTER.VDW>
-16.6038

>  <SCORE.INTER.norm>
-0.248344

>  <SCORE.INTRA>
-3.73749

>  <SCORE.INTRA.DIHEDRAL>
0.0265138

>  <SCORE.INTRA.DIHEDRAL.0>
8.34559

>  <SCORE.INTRA.POLAR>
0

>  <SCORE.INTRA.POLAR.0>
0

>  <SCORE.INTRA.REPUL>
0

>  <SCORE.INTRA.REPUL.0>
0

>  <SCORE.INTRA.SOLV>
-0.644414

>  <SCORE.INTRA.SOLV.lig_0>
-48.829

>  <SCORE.INTRA.VDW>
-3.42854

>  <SCORE.INTRA.VDW.0>
-1.77092

>  <SCORE.INTRA.norm>
-0.138425

>  <SCORE.RESTR>
0.0260772

>  <SCORE.RESTR.CAVITY>
0.0260772

>  <SCORE.RESTR.norm>
0.000965824

>  <SCORE.SYSTEM>
0

>  <SCORE.SYSTEM.CONST>
0

>  <SCORE.SYSTEM.DIHEDRAL>
0

>  <SCORE.SYSTEM.SOLV>
0

>  <SCORE.SYSTEM.norm>
0

>  <SCORE.heavy>
27

>  <SCORE.norm>
-0.385804

>  <RMSD>
5.392

$$$$
ligand
 OpenBabel11021811503D
libRbt.so/2013.1/901 2013/11/27
 27 29  0  0  0  0  0  0  0  0999 V2000
   48.9276  -24.0579 -105.0030 N   0  0  0  0  0  0  0  0  0  0  0  0
   49.0236  -25.0972 -103.9717 C   0  0  2  0  0  0  0  0  0  0  0  0
   50.4710  -25.5082 -103.8019 C   0  0  0  0  0  0  0  0  0  0  0  0
   50.8879  -25.8510 -102.7058 O   0  0  0  0  0  0  0  0  0  0  0  0
   48.1973  -26.3349 -104.3468 C   0  0  0  0  0  0  0  0  0  0  0  0
   46.7265  -25.9762 -104.5052 C   0  0  0  0  0  0  0  0  0  0  0  0
   45.6587  -27.4273 -104.8479 S   0  0  2  0  0  0  0  0  0  0  0  0
   43.9786  -26.7270 -104.9278 C   0  0  0  0  0  0  0  0  0  0  0  0
   45.6328  -28.0307 -103.1614 C   0  0  0  0  0  0  0  0  0  0  0  0
   44.6609  -29.1584 -102.9363 C   0  0  1  0  0  0  0  0  0  0  0  0
   45.0555  -30.2554 -103.7776 O   0  0  0  0  0  0  0  0  0  0  0  0
   44.9539  -29.5673 -101.5490 C   0  0  1  0  0  0  0  0  0  0  0  0
   44.0172  -28.9579 -100.6620 O   0  0  0  0  0  0  0  0  0  0  0  0
   44.7277  -31.0468 -101.5938 C   0  0  1  0  0  0  0  0  0  0  0  0
   43.3395  -31.3500 -101.3437 O   0  0  0  0  0  0  0  0  0  0  0  0
   45.1164  -31.4983 -103.0335 C   0  0  2  0  0  0  0  0  0  0  0  0
   51.2219  -25.5323 -104.7612 O   0  0  0  0  0  0  0  0  0  0  0  0
   50.2179  -31.6871 -101.5714 N   0  0  0  0  0  0  0  0  0  0  0  0
   49.2270  -30.9413 -101.0237 C   0  0  0  0  0  0  0  0  0  0  0  0
   47.9542  -31.0175 -101.4655 N   0  0  0  0  0  0  0  0  0  0  0  0
   47.6429  -31.7758 -102.5292 C   0  0  0  0  0  0  0  0  0  0  0  0
   48.6750  -32.5552 -103.1694 C   0  0  0  0  0  0  0  0  0  0  0  0
   49.9962  -32.4876 -102.6354 C   0  0  0  0  0  0  0  0  0  0  0  0
   51.0286  -33.2145 -103.1926 N   0  0  0  0  0  0  0  0  0  0  0  0
   48.1069  -33.2061 -104.1913 N   0  0  0  0  0  0  0  0  0  0  0  0
   46.8457  -32.8957 -104.2406 C   0  0  0  0  0  0  0  0  0  0  0  0
   46.4986  -32.0227 -103.2361 N   0  0  0  0  0  0  0  0  0  0  0  0
  2  1  1  6  0  0  0
  2  3  1  0  0  0  0
  2  5  1  0  0  0  0
  3  4  1  0  0  0  0
  3 17  1  0  0  0  0
  5  6  1  0  0  0  0
  7  6  1  1  0  0  0
  7  8  1  0  0  0  0
  7  9  1  0  0  0  0
 10  9  1  6  0  0  0
 10 11  1  0  0  0  0
 10 12  1  0  0  0  0
 11 16  1  0  0  0  0
 12 13  1  1  0  0  0
 12 14  1  0  0  0  0
 14 15  1  6  0  0  0
 14 16  1  0  0  0  0
 16 27  1  1  0  0  0
 18 19  2  0  0  0  0
 18 23  1  0  0  0  0
 19 20  1  0  0  0  0
 20 21  2  0  0  0  0
 21 22  1  0  0  0  0
 21 27  1  0  0  0  0
 22 23  2  0  0  0  0
 22 25  1  0  0  0  0
 23 24  1  0  0  0  0
 25 26  2  0  0  0  0
 26 27  1  0  0  0  0
M  END
>  <CHROM.1>
147.06248995,-60.18537669,-176.28491659,178.01760513,171.38576498,61.08213905
87.83668029,47.23979211,-29.24084601,-103.20389595,-1.27112971,-0.05451140
2.88028109

>  <Name>
ligand

>  <RI>
0

>  <Rbt.Current_Directory>
/home/itssahil/PROJECTS/Mol_Feturizer/New_Systems/rnas/4L81

>  <Rbt.Executable>
rbdock ($Id: //depot/dev/client3/rdock/2013.1/src/exe/rbdock.cxx#4 $)

>  <Rbt.Library>
libRbt.so (2013.1, Build901 2013/11/27)

>  <Rbt.Parameter_File>
/export/apps/rDock/src/rDock_2013.1_src/data/scripts/dock_solv.prm

>  <Rbt.Receptor>
prm/pocket_docking_6.prm

>  <SCORE>
-17.3371

>  <SCORE.INTER>
-13.7462

>  <SCORE.INTER.CONST>
1

>  <SCORE.INTER.POLAR>
0

>  <SCORE.INTER.ROT>
7

>  <SCORE.INTER.SOLV>
11.6752

>  <SCORE.INTER.VDW>
-21.3226

>  <SCORE.INTER.norm>
-0.509119

>  <SCORE.INTRA>
-3.59093

>  <SCORE.INTRA.DIHEDRAL>
-4.92283

>  <SCORE.INTRA.DIHEDRAL.0>
8.34559

>  <SCORE.INTRA.POLAR>
0

>  <SCORE.INTRA.POLAR.0>
0

>  <SCORE.INTRA.REPUL>
0

>  <SCORE.INTRA.REPUL.0>
0

>  <SCORE.INTRA.SOLV>
-0.602583

>  <SCORE.INTRA.SOLV.lig_0>
-48.829

>  <SCORE.INTRA.VDW>
-0.828224

>  <SCORE.INTRA.VDW.0>
-1.77092

>  <SCORE.INTRA.norm>
-0.132997

>  <SCORE.RESTR>
0

>  <SCORE.RESTR.CAVITY>
0

>  <SCORE.RESTR.norm>
0

>  <SCORE.SYSTEM>
0

>  <SCORE.SYSTEM.CONST>
0

>  <SCORE.SYSTEM.DIHEDRAL>
0

>  <SCORE.SYSTEM.SOLV>
0

>  <SCORE.SYSTEM.norm>
0

>  <SCORE.heavy>
27

>  <SCORE.norm>
-0.642116

>  <RMSD>
5.393

$$$$
ligand
 OpenBabel11021811503D
libRbt.so/2013.1/901 2013/11/27
 27 29  0  0  0  0  0  0  0  0999 V2000
   45.2445  -29.2979 -101.7063 N   0  0  0  0  0  0  0  0  0  0  0  0
   46.4878  -29.6733 -101.0236 C   0  0  2  0  0  0  0  0  0  0  0  0
   46.3245  -29.4751  -99.5313 C   0  0  0  0  0  0  0  0  0  0  0  0
   46.0499  -30.4237  -98.8119 O   0  0  0  0  0  0  0  0  0  0  0  0
   47.6707  -28.8250 -101.5100 C   0  0  0  0  0  0  0  0  0  0  0  0
   48.9792  -29.3324 -100.9207 C   0  0  0  0  0  0  0  0  0  0  0  0
   49.2738  -31.1150 -101.2353 S   0  0  2  0  0  0  0  0  0  0  0  0
   50.9136  -31.4248 -100.5041 C   0  0  0  0  0  0  0  0  0  0  0  0
   49.7615  -30.9147 -102.9472 C   0  0  0  0  0  0  0  0  0  0  0  0
   49.1753  -31.9505 -103.8693 C   0  0  1  0  0  0  0  0  0  0  0  0
   47.9365  -31.4331 -104.3835 O   0  0  0  0  0  0  0  0  0  0  0  0
   50.1273  -31.9573 -104.9969 C   0  0  1  0  0  0  0  0  0  0  0  0
   51.0522  -33.0317 -104.8367 O   0  0  0  0  0  0  0  0  0  0  0  0
   49.2357  -32.2211 -106.1706 C   0  0  1  0  0  0  0  0  0  0  0  0
   49.0656  -33.6408 -106.3627 O   0  0  0  0  0  0  0  0  0  0  0  0
   47.8645  -31.5663 -105.8255 C   0  0  2  0  0  0  0  0  0  0  0  0
   46.4980  -28.3770  -99.0324 O   0  0  0  0  0  0  0  0  0  0  0  0
   44.9631  -27.1189 -105.8377 N   0  0  0  0  0  0  0  0  0  0  0  0
   44.7419  -28.2493 -105.1228 C   0  0  0  0  0  0  0  0  0  0  0  0
   45.5852  -29.3013 -105.1792 N   0  0  0  0  0  0  0  0  0  0  0  0
   46.6322  -29.2953 -106.0202 C   0  0  0  0  0  0  0  0  0  0  0  0
   46.8822  -28.1279 -106.8309 C   0  0  0  0  0  0  0  0  0  0  0  0
   45.9972  -27.0167 -106.6992 C   0  0  0  0  0  0  0  0  0  0  0  0
   46.1835  -25.8653 -107.4370 N   0  0  0  0  0  0  0  0  0  0  0  0
   47.9668  -28.3824 -107.5724 N   0  0  0  0  0  0  0  0  0  0  0  0
   48.3914  -29.5807 -107.3017 C   0  0  0  0  0  0  0  0  0  0  0  0
   47.6131  -30.1908 -106.3459 N   0  0  0  0  0  0  0  0  0  0  0  0
  2  1  1  6  0  0  0
  2  3  1  0  0  0  0
  2  5  1  0  0  0  0
  3  4  1  0  0  0  0
  3 17  1  0  0  0  0
  5  6  1  0  0  0  0
  7  6  1  1  0  0  0
  7  8  1  0  0  0  0
  7  9  1  0  0  0  0
 10  9  1  1  0  0  0
 10 11  1  0  0  0  0
 10 12  1  0  0  0  0
 11 16  1  0  0  0  0
 12 13  1  1  0  0  0
 12 14  1  0  0  0  0
 14 15  1  1  0  0  0
 14 16  1  0  0  0  0
 16 27  1  6  0  0  0
 18 19  2  0  0  0  0
 18 23  1  0  0  0  0
 19 20  1  0  0  0  0
 20 21  2  0  0  0  0
 21 22  1  0  0  0  0
 21 27  1  0  0  0  0
 22 23  2  0  0  0  0
 22 25  1  0  0  0  0
 23 24  1  0  0  0  0
 25 26  2  0  0  0  0
 26 27  1  0  0  0  0
M  END
>  <CHROM.1>
98.06467421,-173.22436028,54.39255431,177.38273553,-137.47587687,91.57279036
-53.91465006,47.77196739,-30.03472481,-103.78643437,1.35637099,-0.81224412
1.62760928

>  <Name>
ligand

>  <RI>
0

>  <Rbt.Current_Directory>
/home/itssahil/PROJECTS/Mol_Feturizer/New_Systems/rnas/4L81

>  <Rbt.Executable>
rbdock ($Id: //depot/dev/client3/rdock/2013.1/src/exe/rbdock.cxx#4 $)

>  <Rbt.Library>
libRbt.so (2013.1, Build901 2013/11/27)

>  <Rbt.Parameter_File>
/export/apps/rDock/src/rDock_2013.1_src/data/scripts/dock_solv.prm

>  <Rbt.Receptor>
prm/pocket_docking_5.prm

>  <SCORE>
-11.1813

>  <SCORE.INTER>
-11.1635

>  <SCORE.INTER.CONST>
1

>  <SCORE.INTER.POLAR>
0

>  <SCORE.INTER.ROT>
7

>  <SCORE.INTER.SOLV>
11.2811

>  <SCORE.INTER.VDW>
-19.4694

>  <SCORE.INTER.norm>
-0.413464

>  <SCORE.INTRA>
-0.0344166

>  <SCORE.INTRA.DIHEDRAL>
2.30618

>  <SCORE.INTRA.DIHEDRAL.0>
8.34559

>  <SCORE.INTRA.POLAR>
0

>  <SCORE.INTRA.POLAR.0>
0

>  <SCORE.INTRA.REPUL>
0

>  <SCORE.INTRA.REPUL.0>
0

>  <SCORE.INTRA.SOLV>
-0.51984

>  <SCORE.INTRA.SOLV.lig_0>
-48.829

>  <SCORE.INTRA.VDW>
-0.927588

>  <SCORE.INTRA.VDW.0>
-1.77092

>  <SCORE.INTRA.norm>
-0.00127469

>  <SCORE.RESTR>
0.0166755

>  <SCORE.RESTR.CAVITY>
0.0166755

>  <SCORE.RESTR.norm>
0.000617612

>  <SCORE.SYSTEM>
0

>  <SCORE.SYSTEM.CONST>
0

>  <SCORE.SYSTEM.DIHEDRAL>
0

>  <SCORE.SYSTEM.SOLV>
0

>  <SCORE.SYSTEM.norm>
0

>  <SCORE.heavy>
27

>  <SCORE.norm>
-0.414121

>  <RMSD>
5.402

$$$$
ligand
 OpenBabel11021811503D
libRbt.so/2013.1/901 2013/11/27
 27 29  0  0  0  0  0  0  0  0999 V2000
   49.2428  -23.4692 -102.6396 N   0  0  0  0  0  0  0  0  0  0  0  0
   49.8564  -24.4882 -103.4986 C   0  0  2  0  0  0  0  0  0  0  0  0
   50.6681  -23.8124 -104.5835 C   0  0  0  0  0  0  0  0  0  0  0  0
   50.6523  -22.5958 -104.6951 O   0  0  0  0  0  0  0  0  0  0  0  0
   48.7934  -25.3786 -104.1563 C   0  0  0  0  0  0  0  0  0  0  0  0
   48.0981  -26.2482 -103.1185 C   0  0  0  0  0  0  0  0  0  0  0  0
   46.8097  -27.3406 -103.8328 S   0  0  2  0  0  0  0  0  0  0  0  0
   45.3968  -26.2258 -104.1167 C   0  0  0  0  0  0  0  0  0  0  0  0
   46.2967  -28.0541 -102.2718 C   0  0  0  0  0  0  0  0  0  0  0  0
   45.0013  -28.8173 -102.3511 C   0  0  1  0  0  0  0  0  0  0  0  0
   45.0234  -29.6000 -103.5568 O   0  0  0  0  0  0  0  0  0  0  0  0
   45.1169  -29.7702 -101.2303 C   0  0  1  0  0  0  0  0  0  0  0  0
   44.4206  -29.2604 -100.0942 O   0  0  0  0  0  0  0  0  0  0  0  0
   44.4123  -30.9801 -101.7611 C   0  0  1  0  0  0  0  0  0  0  0  0
   42.9981  -30.8976 -101.4879 O   0  0  0  0  0  0  0  0  0  0  0  0
   44.6543  -30.9784 -103.3004 C   0  0  2  0  0  0  0  0  0  0  0  0
   51.3681  -24.4722 -105.3315 O   0  0  0  0  0  0  0  0  0  0  0  0
   47.1989  -33.2576 -107.3659 N   0  0  0  0  0  0  0  0  0  0  0  0
   46.0439  -32.5488 -107.4052 C   0  0  0  0  0  0  0  0  0  0  0  0
   45.5207  -31.9823 -106.2979 N   0  0  0  0  0  0  0  0  0  0  0  0
   46.0861  -32.1788 -105.0957 C   0  0  0  0  0  0  0  0  0  0  0  0
   47.2947  -32.9616 -105.0014 C   0  0  0  0  0  0  0  0  0  0  0  0
   47.8444  -33.4959 -106.2046 C   0  0  0  0  0  0  0  0  0  0  0  0
   49.0032  -34.2453 -106.1880 N   0  0  0  0  0  0  0  0  0  0  0  0
   47.6409  -33.0063 -103.7095 N   0  0  0  0  0  0  0  0  0  0  0  0
   46.7658  -32.3421 -103.0149 C   0  0  0  0  0  0  0  0  0  0  0  0
   45.7867  -31.8021 -103.8157 N   0  0  0  0  0  0  0  0  0  0  0  0
  2  1  1  6  0  0  0
  2  3  1  0  0  0  0
  2  5  1  0  0  0  0
  3  4  1  0  0  0  0
  3 17  1  0  0  0  0
  5  6  1  0  0  0  0
  7  6  1  1  0  0  0
  7  8  1  0  0  0  0
  7  9  1  0  0  0  0
 10  9  1  6  0  0  0
 10 11  1  0  0  0  0
 10 12  1  0  0  0  0
 11 16  1  0  0  0  0
 12 13  1  1  0  0  0
 12 14  1  0  0  0  0
 14 15  1  6  0  0  0
 14 16  1  0  0  0  0
 16 27  1  1  0  0  0
 18 19  2  0  0  0  0
 18 23  1  0  0  0  0
 19 20  1  0  0  0  0
 20 21  2  0  0  0  0
 21 22  1  0  0  0  0
 21 27  1  0  0  0  0
 22 23  2  0  0  0  0
 22 25  1  0  0  0  0
 23 24  1  0  0  0  0
 25 26  2  0  0  0  0
 26 27  1  0  0  0  0
M  END
>  <CHROM.1>
-5.27958393,-68.22137976,179.92520086,-77.23617852,166.83615489,42.54882362
-79.63797059,46.94952994,-29.06426072,-103.88302999,1.02968944,0.70826317
0.43680989

>  <Name>
ligand

>  <RI>
0

>  <Rbt.Current_Directory>
/home/itssahil/PROJECTS/Mol_Feturizer/New_Systems/rnas/4L81

>  <Rbt.Executable>
rbdock ($Id: //depot/dev/client3/rdock/2013.1/src/exe/rbdock.cxx#4 $)

>  <Rbt.Library>
libRbt.so (2013.1, Build901 2013/11/27)

>  <Rbt.Parameter_File>
/export/apps/rDock/src/rDock_2013.1_src/data/scripts/dock_solv.prm

>  <Rbt.Receptor>
prm/pocket_docking_7.prm

>  <SCORE>
-15.1059

>  <SCORE.INTER>
-13.0599

>  <SCORE.INTER.CONST>
1

>  <SCORE.INTER.POLAR>
0

>  <SCORE.INTER.ROT>
7

>  <SCORE.INTER.SOLV>
13.3196

>  <SCORE.INTER.VDW>
-21.4131

>  <SCORE.INTER.norm>
-0.483699

>  <SCORE.INTRA>
-2.04598

>  <SCORE.INTRA.DIHEDRAL>
-3.58788

>  <SCORE.INTRA.DIHEDRAL.0>
8.34559

>  <SCORE.INTRA.POLAR>
0

>  <SCORE.INTRA.POLAR.0>
0

>  <SCORE.INTRA.REPUL>
0

>  <SCORE.INTRA.REPUL.0>
0

>  <SCORE.INTRA.SOLV>
-0.620131

>  <SCORE.INTRA.SOLV.lig_0>
-48.829

>  <SCORE.INTRA.VDW>
0.0580289

>  <SCORE.INTRA.VDW.0>
-1.77092

>  <SCORE.INTRA.norm>
-0.0757769

>  <SCORE.RESTR>
0

>  <SCORE.RESTR.CAVITY>
0

>  <SCORE.RESTR.norm>
0

>  <SCORE.SYSTEM>
0

>  <SCORE.SYSTEM.CONST>
0

>  <SCORE.SYSTEM.DIHEDRAL>
0

>  <SCORE.SYSTEM.SOLV>
0

>  <SCORE.SYSTEM.norm>
0

>  <SCORE.heavy>
27

>  <SCORE.norm>
-0.559476

>  <RMSD>
5.405

$$$$
ligand
 OpenBabel11021811503D
libRbt.so/2013.1/901 2013/11/27
 27 29  0  0  0  0  0  0  0  0999 V2000
   47.9101  -26.3690 -108.1498 N   0  0  0  0  0  0  0  0  0  0  0  0
   48.0493  -25.7156 -106.8435 C   0  0  2  0  0  0  0  0  0  0  0  0
   49.5013  -25.7463 -106.4154 C   0  0  0  0  0  0  0  0  0  0  0  0
   50.1021  -26.8085 -106.3559 O   0  0  0  0  0  0  0  0  0  0  0  0
   47.2019  -26.4181 -105.7740 C   0  0  0  0  0  0  0  0  0  0  0  0
   45.7275  -26.3968 -106.1514 C   0  0  0  0  0  0  0  0  0  0  0  0
   44.6662  -27.3324 -104.9845 S   0  0  2  0  0  0  0  0  0  0  0  0
   45.1521  -26.7007 -103.3460 C   0  0  0  0  0  0  0  0  0  0  0  0
   45.6491  -28.8297 -105.0123 C   0  0  0  0  0  0  0  0  0  0  0  0
   44.8974  -30.0561 -104.5676 C   0  0  1  0  0  0  0  0  0  0  0  0
   45.7273  -31.2009 -104.8282 O   0  0  0  0  0  0  0  0  0  0  0  0
   44.8528  -29.8956 -103.1013 C   0  0  1  0  0  0  0  0  0  0  0  0
   43.5987  -29.3331 -102.7189 O   0  0  0  0  0  0  0  0  0  0  0  0
   44.9473  -31.3099 -102.6186 C   0  0  1  0  0  0  0  0  0  0  0  0
   43.6350  -31.9053 -102.5495 O   0  0  0  0  0  0  0  0  0  0  0  0
   45.8163  -32.0658 -103.6680 C   0  0  2  0  0  0  0  0  0  0  0  0
   50.0909  -24.7110 -106.1593 O   0  0  0  0  0  0  0  0  0  0  0  0
   49.9981  -31.0388 -100.5607 N   0  0  0  0  0  0  0  0  0  0  0  0
   48.7220  -30.6108 -100.3990 C   0  0  0  0  0  0  0  0  0  0  0  0
   47.7368  -30.9807 -101.2437 N   0  0  0  0  0  0  0  0  0  0  0  0
   48.0090  -31.7197 -102.3315 C   0  0  0  0  0  0  0  0  0  0  0  0
   49.3622  -32.1633 -102.5654 C   0  0  0  0  0  0  0  0  0  0  0  0
   50.3628  -31.7956 -101.6173 C   0  0  0  0  0  0  0  0  0  0  0  0
   51.6748  -32.1940 -101.7743 N   0  0  0  0  0  0  0  0  0  0  0  0
   49.3597  -32.8675 -103.7033 N   0  0  0  0  0  0  0  0  0  0  0  0
   48.1524  -32.8881 -104.1843 C   0  0  0  0  0  0  0  0  0  0  0  0
   47.2734  -32.2033 -103.3779 N   0  0  0  0  0  0  0  0  0  0  0  0
  2  1  1  6  0  0  0
  2  3  1  0  0  0  0
  2  5  1  0  0  0  0
  3  4  1  0  0  0  0
  3 17  1  0  0  0  0
  5  6  1  0  0  0  0
  7  6  1  6  0  0  0
  7  8  1  0  0  0  0
  7  9  1  0  0  0  0
 10  9  1  6  0  0  0
 10 11  1  0  0  0  0
 10 12  1  0  0  0  0
 11 16  1  0  0  0  0
 12 13  1  6  0  0  0
 12 14  1  0  0  0  0
 14 15  1  6  0  0  0
 14 16  1  0  0  0  0
 16 27  1  1  0  0  0
 18 19  2  0  0  0  0
 18 23  1  0  0  0  0
 19 20  1  0  0  0  0
 20 21  2  0  0  0  0
 21 22  1  0  0  0  0
 21 27  1  0  0  0  0
 22 23  2  0  0  0  0
 22 25  1  0  0  0  0
 23 24  1  0  0  0  0
 25 26  2  0  0  0  0
 26 27  1  0  0  0  0
M  END
>  <CHROM.1>
-55.20198411,-59.94669975,175.51700026,50.09642686,-159.36798185,171.43652564
110.68279122,47.16127556,-29.42844976,-103.98094439,-1.66066672,0.01340417
2.53807546

>  <Name>
ligand

>  <RI>
0

>  <Rbt.Current_Directory>
/home/itssahil/PROJECTS/Mol_Feturizer/New_Systems/rnas/4L81

>  <Rbt.Executable>
rbdock ($Id: //depot/dev/client3/rdock/2013.1/src/exe/rbdock.cxx#4 $)

>  <Rbt.Library>
libRbt.so (2013.1, Build901 2013/11/27)

>  <Rbt.Parameter_File>
/export/apps/rDock/src/rDock_2013.1_src/data/scripts/dock_solv.prm

>  <Rbt.Receptor>
prm/pocket_docking_5.prm

>  <SCORE>
-13.3825

>  <SCORE.INTER>
-12.8959

>  <SCORE.INTER.CONST>
1

>  <SCORE.INTER.POLAR>
0

>  <SCORE.INTER.ROT>
7

>  <SCORE.INTER.SOLV>
12.9925

>  <SCORE.INTER.VDW>
-21.1947

>  <SCORE.INTER.norm>
-0.477625

>  <SCORE.INTRA>
-0.486627

>  <SCORE.INTRA.DIHEDRAL>
-2.77247

>  <SCORE.INTRA.DIHEDRAL.0>
8.34559

>  <SCORE.INTRA.POLAR>
0

>  <SCORE.INTRA.POLAR.0>
0

>  <SCORE.INTRA.REPUL>
0

>  <SCORE.INTRA.REPUL.0>
0

>  <SCORE.INTRA.SOLV>
-0.214043

>  <SCORE.INTRA.SOLV.lig_0>
-48.829

>  <SCORE.INTRA.VDW>
1.00663

>  <SCORE.INTRA.VDW.0>
-1.77092

>  <SCORE.INTRA.norm>
-0.0180232

>  <SCORE.RESTR>
0

>  <SCORE.RESTR.CAVITY>
0

>  <SCORE.RESTR.norm>
0

>  <SCORE.SYSTEM>
0

>  <SCORE.SYSTEM.CONST>
0

>  <SCORE.SYSTEM.DIHEDRAL>
0

>  <SCORE.SYSTEM.SOLV>
0

>  <SCORE.SYSTEM.norm>
0

>  <SCORE.heavy>
27

>  <SCORE.norm>
-0.495648

>  <RMSD>
5.411

$$$$
ligand
 OpenBabel11021811503D
libRbt.so/2013.1/901 2013/11/27
 27 29  0  0  0  0  0  0  0  0999 V2000
   47.9945  -24.9088 -108.9494 N   0  0  0  0  0  0  0  0  0  0  0  0
   48.0168  -26.0940 -108.0849 C   0  0  2  0  0  0  0  0  0  0  0  0
   48.4772  -27.2943 -108.8849 C   0  0  0  0  0  0  0  0  0  0  0  0
   48.3292  -27.3181 -110.0975 O   0  0  0  0  0  0  0  0  0  0  0  0
   46.6271  -26.3885 -107.5041 C   0  0  0  0  0  0  0  0  0  0  0  0
   46.7333  -27.2627 -106.2627 C   0  0  0  0  0  0  0  0  0  0  0  0
   45.1106  -27.8711 -105.6626 S   0  0  2  0  0  0  0  0  0  0  0  0
   44.1994  -26.3503 -105.2429 C   0  0  0  0  0  0  0  0  0  0  0  0
   45.6832  -28.3178 -104.0251 C   0  0  0  0  0  0  0  0  0  0  0  0
   44.8158  -29.3383 -103.3374 C   0  0  1  0  0  0  0  0  0  0  0  0
   45.1309  -30.6283 -103.8882 O   0  0  0  0  0  0  0  0  0  0  0  0
   45.3391  -29.3323 -101.9576 C   0  0  1  0  0  0  0  0  0  0  0  0
   44.5206  -28.4989 -101.1384 O   0  0  0  0  0  0  0  0  0  0  0  0
   45.1836  -30.7638 -101.5470 C   0  0  1  0  0  0  0  0  0  0  0  0
   43.8676  -30.9890 -101.0003 O   0  0  0  0  0  0  0  0  0  0  0  0
   45.3683  -31.6064 -102.8447 C   0  0  2  0  0  0  0  0  0  0  0  0
   49.0278  -28.2300 -108.3315 O   0  0  0  0  0  0  0  0  0  0  0  0
   50.5442  -31.8422 -101.6813 N   0  0  0  0  0  0  0  0  0  0  0  0
   49.5997  -31.0634 -101.0989 C   0  0  0  0  0  0  0  0  0  0  0  0
   48.3018  -31.1300 -101.4622 N   0  0  0  0  0  0  0  0  0  0  0  0
   47.9156  -31.9135 -102.4823 C   0  0  0  0  0  0  0  0  0  0  0  0
   48.8953  -32.7293 -103.1585 C   0  0  0  0  0  0  0  0  0  0  0  0
   50.2468  -32.6695 -102.7057 C   0  0  0  0  0  0  0  0  0  0  0  0
   51.2326  -33.4303 -103.3007 N   0  0  0  0  0  0  0  0  0  0  0  0
   48.2571  -33.3997 -104.1249 N   0  0  0  0  0  0  0  0  0  0  0  0
   47.0002  -33.0686 -104.1091 C   0  0  0  0  0  0  0  0  0  0  0  0
   46.7275  -32.1607 -103.1126 N   0  0  0  0  0  0  0  0  0  0  0  0
  2  1  1  6  0  0  0
  2  3  1  0  0  0  0
  2  5  1  0  0  0  0
  3  4  1  0  0  0  0
  3 17  1  0  0  0  0
  5  6  1  0  0  0  0
  7  6  1  6  0  0  0
  7  8  1  0  0  0  0
  7  9  1  0  0  0  0
 10  9  1  6  0  0  0
 10 11  1  0  0  0  0
 10 12  1  0  0  0  0
 11 16  1  0  0  0  0
 12 13  1  1  0  0  0
 12 14  1  0  0  0  0
 14 15  1  6  0  0  0
 14 16  1  0  0  0  0
 16 27  1  6  0  0  0
 18 19  2  0  0  0  0
 18 23  1  0  0  0  0
 19 20  1  0  0  0  0
 20 21  2  0  0  0  0
 21 22  1  0  0  0  0
 21 27  1  0  0  0  0
 22 23  2  0  0  0  0
 22 25  1  0  0  0  0
 23 24  1  0  0  0  0
 25 26  2  0  0  0  0
 26 27  1  0  0  0  0
M  END
>  <CHROM.1>
-24.95082564,-159.65114461,-171.08395003,-61.75306138,-157.93297189,78.08010239
103.98880505,46.99692179,-29.63820401,-104.40369414,-1.63758889,-0.50865658
2.27145519

>  <Name>
ligand

>  <RI>
0

>  <Rbt.Current_Directory>
/home/itssahil/PROJECTS/Mol_Feturizer/New_Systems/rnas/4L81

>  <Rbt.Executable>
rbdock ($Id: //depot/dev/client3/rdock/2013.1/src/exe/rbdock.cxx#4 $)

>  <Rbt.Library>
libRbt.so (2013.1, Build901 2013/11/27)

>  <Rbt.Parameter_File>
/export/apps/rDock/src/rDock_2013.1_src/data/scripts/dock_solv.prm

>  <Rbt.Receptor>
prm/pocket_docking_6.prm

>  <SCORE>
-15.8323

>  <SCORE.INTER>
-14.3919

>  <SCORE.INTER.CONST>
1

>  <SCORE.INTER.POLAR>
0

>  <SCORE.INTER.ROT>
7

>  <SCORE.INTER.SOLV>
14.2084

>  <SCORE.INTER.VDW>
-22.5974

>  <SCORE.INTER.norm>
-0.533034

>  <SCORE.INTRA>
-1.44039

>  <SCORE.INTRA.DIHEDRAL>
0.20021

>  <SCORE.INTRA.DIHEDRAL.0>
8.34559

>  <SCORE.INTRA.POLAR>
0

>  <SCORE.INTRA.POLAR.0>
0

>  <SCORE.INTRA.REPUL>
0

>  <SCORE.INTRA.REPUL.0>
0

>  <SCORE.INTRA.SOLV>
-1.33917

>  <SCORE.INTRA.SOLV.lig_0>
-48.829

>  <SCORE.INTRA.VDW>
-0.870916

>  <SCORE.INTRA.VDW.0>
-1.77092

>  <SCORE.INTRA.norm>
-0.053348

>  <SCORE.RESTR>
0

>  <SCORE.RESTR.CAVITY>
0

>  <SCORE.RESTR.norm>
0

>  <SCORE.SYSTEM>
0

>  <SCORE.SYSTEM.CONST>
0

>  <SCORE.SYSTEM.DIHEDRAL>
0

>  <SCORE.SYSTEM.SOLV>
0

>  <SCORE.SYSTEM.norm>
0

>  <SCORE.heavy>
27

>  <SCORE.norm>
-0.586382

>  <RMSD>
5.413

$$$$
ligand
 OpenBabel11021811503D
libRbt.so/2013.1/901 2013/11/27
 27 29  0  0  0  0  0  0  0  0999 V2000
   49.1095  -29.6999 -102.0293 N   0  0  0  0  0  0  0  0  0  0  0  0
   48.2884  -29.1296 -100.9554 C   0  0  2  0  0  0  0  0  0  0  0  0
   47.4742  -30.2279 -100.3044 C   0  0  0  0  0  0  0  0  0  0  0  0
   46.9450  -31.0894 -100.9904 O   0  0  0  0  0  0  0  0  0  0  0  0
   47.3326  -28.0559 -101.4928 C   0  0  0  0  0  0  0  0  0  0  0  0
   48.1072  -26.9168 -102.1405 C   0  0  0  0  0  0  0  0  0  0  0  0
   48.4555  -27.1955 -103.9193 S   0  0  2  0  0  0  0  0  0  0  0  0
   49.8772  -26.1093 -104.2638 C   0  0  0  0  0  0  0  0  0  0  0  0
   47.1409  -26.1400 -104.5249 C   0  0  0  0  0  0  0  0  0  0  0  0
   45.9678  -26.8965 -105.0891 C   0  0  1  0  0  0  0  0  0  0  0  0
   46.4775  -27.8888 -105.9959 O   0  0  0  0  0  0  0  0  0  0  0  0
   45.4563  -27.6264 -103.9130 C   0  0  1  0  0  0  0  0  0  0  0  0
   44.3608  -26.9108 -103.3442 O   0  0  0  0  0  0  0  0  0  0  0  0
   44.9718  -28.9091 -104.5146 C   0  0  1  0  0  0  0  0  0  0  0  0
   43.6086  -28.7686 -104.9656 O   0  0  0  0  0  0  0  0  0  0  0  0
   45.9042  -29.1937 -105.7302 C   0  0  2  0  0  0  0  0  0  0  0  0
   47.3679  -30.2805  -99.0917 O   0  0  0  0  0  0  0  0  0  0  0  0
   47.9941  -33.4696 -103.3750 N   0  0  0  0  0  0  0  0  0  0  0  0
   46.7468  -32.9633 -103.2148 C   0  0  0  0  0  0  0  0  0  0  0  0
   46.3229  -31.8870 -103.9097 N   0  0  0  0  0  0  0  0  0  0  0  0
   47.1604  -31.2244 -104.7240 C   0  0  0  0  0  0  0  0  0  0  0  0
   48.5107  -31.7045 -104.8932 C   0  0  0  0  0  0  0  0  0  0  0  0
   48.9003  -32.8781 -104.1819 C   0  0  0  0  0  0  0  0  0  0  0  0
   50.1732  -33.3972 -104.3051 N   0  0  0  0  0  0  0  0  0  0  0  0
   49.1265  -30.8719 -105.7409 N   0  0  0  0  0  0  0  0  0  0  0  0
   48.2948  -29.9373 -106.0933 C   0  0  0  0  0  0  0  0  0  0  0  0
   47.0634  -30.1056 -105.5043 N   0  0  0  0  0  0  0  0  0  0  0  0
  2  1  1  6  0  0  0
  2  3  1  0  0  0  0
  2  5  1  0  0  0  0
  3  4  1  0  0  0  0
  3 17  1  0  0  0  0
  5  6  1  0  0  0  0
  7  6  1  1  0  0  0
  7  8  1  0  0  0  0
  7  9  1  0  0  0  0
 10  9  1  1  0  0  0
 10 11  1  0  0  0  0
 10 12  1  0  0  0  0
 11 16  1  0  0  0  0
 12 13  1  6  0  0  0
 12 14  1  0  0  0  0
 14 15  1  6  0  0  0
 14 16  1  0  0  0  0
 16 27  1  1  0  0  0
 18 19  2  0  0  0  0
 18 23  1  0  0  0  0
 19 20  1  0  0  0  0
 20 21  2  0  0  0  0
 21 22  1  0  0  0  0
 21 27  1  0  0  0  0
 22 23  2  0  0  0  0
 22 25  1  0  0  0  0
 23 24  1  0  0  0  0
 25 26  2  0  0  0  0
 26 27  1  0  0  0  0
M  END
>  <CHROM.1>
-41.48254507,-60.02668026,88.28813516,-158.32165160,-106.05839616,-48.51359674
149.96480232,47.32027506,-29.43138702,-103.65512552,-0.42575627,-1.21917308
0.91903946

>  <Name>
ligand

>  <RI>
0

>  <Rbt.Current_Directory>
/home/itssahil/PROJECTS/Mol_Feturizer/New_Systems/rnas/4L81

>  <Rbt.Executable>
rbdock ($Id: //depot/dev/client3/rdock/2013.1/src/exe/rbdock.cxx#4 $)

>  <Rbt.Library>
libRbt.so (2013.1, Build901 2013/11/27)

>  <Rbt.Parameter_File>
/export/apps/rDock/src/rDock_2013.1_src/data/scripts/dock_solv.prm

>  <Rbt.Receptor>
prm/pocket_docking_5.prm

>  <SCORE>
-7.73601

>  <SCORE.INTER>
-7.21393

>  <SCORE.INTER.CONST>
1

>  <SCORE.INTER.POLAR>
0

>  <SCORE.INTER.ROT>
7

>  <SCORE.INTER.SOLV>
9.63244

>  <SCORE.INTER.VDW>
-16.2868

>  <SCORE.INTER.norm>
-0.267183

>  <SCORE.INTRA>
-0.522077

>  <SCORE.INTRA.DIHEDRAL>
3.38368

>  <SCORE.INTRA.DIHEDRAL.0>
8.34559

>  <SCORE.INTRA.POLAR>
0

>  <SCORE.INTRA.POLAR.0>
0

>  <SCORE.INTRA.REPUL>
0

>  <SCORE.INTRA.REPUL.0>
0

>  <SCORE.INTRA.SOLV>
1.89317

>  <SCORE.INTRA.SOLV.lig_0>
-48.829

>  <SCORE.INTRA.VDW>
-3.1605

>  <SCORE.INTRA.VDW.0>
-1.77092

>  <SCORE.INTRA.norm>
-0.0193362

>  <SCORE.RESTR>
0

>  <SCORE.RESTR.CAVITY>
0

>  <SCORE.RESTR.norm>
0

>  <SCORE.SYSTEM>
0

>  <SCORE.SYSTEM.CONST>
0

>  <SCORE.SYSTEM.DIHEDRAL>
0

>  <SCORE.SYSTEM.SOLV>
0

>  <SCORE.SYSTEM.norm>
0

>  <SCORE.heavy>
27

>  <SCORE.norm>
-0.286519

>  <RMSD>
5.441

$$$$
ligand
 OpenBabel11021811503D
libRbt.so/2013.1/901 2013/11/27
 27 29  0  0  0  0  0  0  0  0999 V2000
   46.9344  -29.7315 -107.2260 N   0  0  0  0  0  0  0  0  0  0  0  0
   45.7590  -29.5402 -106.3690 C   0  0  2  0  0  0  0  0  0  0  0  0
   45.5720  -28.0638 -106.0899 C   0  0  0  0  0  0  0  0  0  0  0  0
   44.4547  -27.6137 -105.8856 O   0  0  0  0  0  0  0  0  0  0  0  0
   45.9139  -30.2816 -105.0341 C   0  0  0  0  0  0  0  0  0  0  0  0
   44.6661  -30.1202 -104.1774 C   0  0  0  0  0  0  0  0  0  0  0  0
   44.7411  -31.0572 -102.6026 S   0  0  2  0  0  0  0  0  0  0  0  0
   43.1718  -30.6473 -101.7726 C   0  0  0  0  0  0  0  0  0  0  0  0
   45.8171  -29.9001 -101.7588 C   0  0  0  0  0  0  0  0  0  0  0  0
   47.1767  -30.4611 -101.4371 C   0  0  1  0  0  0  0  0  0  0  0  0
   47.9288  -30.5242 -102.6607 O   0  0  0  0  0  0  0  0  0  0  0  0
   47.7860  -29.3901 -100.6250 C   0  0  1  0  0  0  0  0  0  0  0  0
   47.6419  -29.6985  -99.2395 O   0  0  0  0  0  0  0  0  0  0  0  0
   49.2286  -29.4674 -101.0186 C   0  0  1  0  0  0  0  0  0  0  0  0
   49.9229  -30.4270 -100.1949 O   0  0  0  0  0  0  0  0  0  0  0  0
   49.2449  -29.9363 -102.5045 C   0  0  2  0  0  0  0  0  0  0  0  0
   46.5355  -27.3199 -106.0339 O   0  0  0  0  0  0  0  0  0  0  0  0
   50.6779  -25.0386 -103.9734 N   0  0  0  0  0  0  0  0  0  0  0  0
   50.7781  -25.5958 -102.7415 C   0  0  0  0  0  0  0  0  0  0  0  0
   50.4137  -26.8741 -102.5088 N   0  0  0  0  0  0  0  0  0  0  0  0
   49.8529  -27.6138 -103.4794 C   0  0  0  0  0  0  0  0  0  0  0  0
   49.6890  -27.0468 -104.7962 C   0  0  0  0  0  0  0  0  0  0  0  0
   50.1387  -25.7103 -105.0127 C   0  0  0  0  0  0  0  0  0  0  0  0
   50.0214  -25.1100 -106.2499 N   0  0  0  0  0  0  0  0  0  0  0  0
   49.1088  -27.9784 -105.5619 N   0  0  0  0  0  0  0  0  0  0  0  0
   48.8978  -29.0421 -104.8454 C   0  0  0  0  0  0  0  0  0  0  0  0
   49.3424  -28.8802 -103.5540 N   0  0  0  0  0  0  0  0  0  0  0  0
  2  1  1  6  0  0  0
  2  3  1  0  0  0  0
  2  5  1  0  0  0  0
  3  4  1  0  0  0  0
  3 17  1  0  0  0  0
  5  6  1  0  0  0  0
  7  6  1  6  0  0  0
  7  8  1  0  0  0  0
  7  9  1  0  0  0  0
 10  9  1  6  0  0  0
 10 11  1  0  0  0  0
 10 12  1  0  0  0  0
 11 16  1  0  0  0  0
 12 13  1  1  0  0  0
 12 14  1  0  0  0  0
 14 15  1  1  0  0  0
 14 16  1  0  0  0  0
 16 27  1  6  0  0  0
 18 19  2  0  0  0  0
 18 23  1  0  0  0  0
 19 20  1  0  0  0  0
 20 21  2  0  0  0  0
 21 22  1  0  0  0  0
 21 27  1  0  0  0  0
 22 23  2  0  0  0  0
 22 25  1  0  0  0  0
 23 24  1  0  0  0  0
 25 26  2  0  0  0  0
 26 27  1  0  0  0  0
M  END
>  <CHROM.1>
150.69767255,-177.78554562,176.82073515,178.31436607,-114.02596244,74.11073592
137.74893644,47.62038114,-28.79260764,-103.52210829,2.55844696,0.51552225
2.06210464

>  <Name>
ligand

>  <RI>
0

>  <Rbt.Current_Directory>
/home/itssahil/PROJECTS/Mol_Feturizer/New_Systems/rnas/4L81

>  <Rbt.Executable>
rbdock ($Id: //depot/dev/client3/rdock/2013.1/src/exe/rbdock.cxx#4 $)

>  <Rbt.Library>
libRbt.so (2013.1, Build901 2013/11/27)

>  <Rbt.Parameter_File>
/export/apps/rDock/src/rDock_2013.1_src/data/scripts/dock_solv.prm

>  <Rbt.Receptor>
prm/pocket_docking_4.prm

>  <SCORE>
-10.7642

>  <SCORE.INTER>
-8.29844

>  <SCORE.INTER.CONST>
1

>  <SCORE.INTER.POLAR>
0

>  <SCORE.INTER.ROT>
7

>  <SCORE.INTER.SOLV>
13.8944

>  <SCORE.INTER.VDW>
-18.4304

>  <SCORE.INTER.norm>
-0.307349

>  <SCORE.INTRA>
-2.46573

>  <SCORE.INTRA.DIHEDRAL>
-0.316576

>  <SCORE.INTRA.DIHEDRAL.0>
8.34559

>  <SCORE.INTRA.POLAR>
0

>  <SCORE.INTRA.POLAR.0>
0

>  <SCORE.INTRA.REPUL>
0

>  <SCORE.INTRA.REPUL.0>
0

>  <SCORE.INTRA.SOLV>
-0.253148

>  <SCORE.INTRA.SOLV.lig_0>
-48.829

>  <SCORE.INTRA.VDW>
-2.18087

>  <SCORE.INTRA.VDW.0>
-1.77092

>  <SCORE.INTRA.norm>
-0.0913232

>  <SCORE.RESTR>
0

>  <SCORE.RESTR.CAVITY>
0

>  <SCORE.RESTR.norm>
0

>  <SCORE.SYSTEM>
0

>  <SCORE.SYSTEM.CONST>
0

>  <SCORE.SYSTEM.DIHEDRAL>
0

>  <SCORE.SYSTEM.SOLV>
0

>  <SCORE.SYSTEM.norm>
0

>  <SCORE.heavy>
27

>  <SCORE.norm>
-0.398673

>  <RMSD>
5.445

$$$$
ligand
 OpenBabel11021811503D
libRbt.so/2013.1/901 2013/11/27
 27 29  0  0  0  0  0  0  0  0999 V2000
   47.3961  -23.7217 -108.0898 N   0  0  0  0  0  0  0  0  0  0  0  0
   46.0476  -23.3513 -107.6460 C   0  0  2  0  0  0  0  0  0  0  0  0
   45.8908  -21.8465 -107.7082 C   0  0  0  0  0  0  0  0  0  0  0  0
   44.7825  -21.3492 -107.8391 O   0  0  0  0  0  0  0  0  0  0  0  0
   45.7845  -23.8183 -106.2079 C   0  0  0  0  0  0  0  0  0  0  0  0
   45.6586  -25.3339 -106.1454 C   0  0  0  0  0  0  0  0  0  0  0  0
   45.3136  -25.9643 -104.4581 S   0  0  2  0  0  0  0  0  0  0  0  0
   46.9392  -25.9309 -103.6359 C   0  0  0  0  0  0  0  0  0  0  0  0
   45.2673  -27.6942 -104.9212 C   0  0  0  0  0  0  0  0  0  0  0  0
   44.5002  -28.5592 -103.9567 C   0  0  1  0  0  0  0  0  0  0  0  0
   44.4629  -29.8924 -104.4934 O   0  0  0  0  0  0  0  0  0  0  0  0
   45.3919  -28.6048 -102.7817 C   0  0  1  0  0  0  0  0  0  0  0  0
   44.9654  -27.6422 -101.8190 O   0  0  0  0  0  0  0  0  0  0  0  0
   45.1637  -29.9885 -102.2568 C   0  0  1  0  0  0  0  0  0  0  0  0
   44.0411  -30.0028 -101.3508 O   0  0  0  0  0  0  0  0  0  0  0  0
   44.8511  -30.8745 -103.4999 C   0  0  2  0  0  0  0  0  0  0  0  0
   46.8625  -21.1200 -107.5953 O   0  0  0  0  0  0  0  0  0  0  0  0
   48.3440  -31.5481 -107.4425 N   0  0  0  0  0  0  0  0  0  0  0  0
   47.3633  -30.6161 -107.3559 C   0  0  0  0  0  0  0  0  0  0  0  0
   46.5640  -30.5252 -106.2725 N   0  0  0  0  0  0  0  0  0  0  0  0
   46.6582  -31.4196 -105.2752 C   0  0  0  0  0  0  0  0  0  0  0  0
   47.6615  -32.4545 -105.3449 C   0  0  0  0  0  0  0  0  0  0  0  0
   48.5219  -32.4802 -106.4826 C   0  0  0  0  0  0  0  0  0  0  0  0
   49.5092  -33.4363 -106.6086 N   0  0  0  0  0  0  0  0  0  0  0  0
   47.5384  -33.2039 -104.2430 N   0  0  0  0  0  0  0  0  0  0  0  0
   46.5632  -32.7368 -103.5217 C   0  0  0  0  0  0  0  0  0  0  0  0
   45.9865  -31.6318 -104.1030 N   0  0  0  0  0  0  0  0  0  0  0  0
  2  1  1  1  0  0  0
  2  3  1  0  0  0  0
  2  5  1  0  0  0  0
  3  4  1  0  0  0  0
  3 17  1  0  0  0  0
  5  6  1  0  0  0  0
  7  6  1  6  0  0  0
  7  8  1  0  0  0  0
  7  9  1  0  0  0  0
 10  9  1  6  0  0  0
 10 11  1  0  0  0  0
 10 12  1  0  0  0  0
 11 16  1  0  0  0  0
 12 13  1  1  0  0  0
 12 14  1  0  0  0  0
 14 15  1  1  0  0  0
 14 16  1  0  0  0  0
 16 27  1  6  0  0  0
 18 19  2  0  0  0  0
 18 23  1  0  0  0  0
 19 20  1  0  0  0  0
 20 21  2  0  0  0  0
 21 22  1  0  0  0  0
 21 27  1  0  0  0  0
 22 23  2  0  0  0  0
 22 25  1  0  0  0  0
 23 24  1  0  0  0  0
 25 26  2  0  0  0  0
 26 27  1  0  0  0  0
M  END
>  <CHROM.1>
154.64074502,-70.36543431,-178.99417280,-79.07716218,-157.70262940,176.01692411
6.03644628,46.13824541,-28.12596369,-105.16222744,-1.74290491,-0.96663065
2.75249705

>  <Name>
ligand

>  <RI>
0

>  <Rbt.Current_Directory>
/home/itssahil/PROJECTS/Mol_Feturizer/New_Systems/rnas/4L81

>  <Rbt.Executable>
rbdock ($Id: //depot/dev/client3/rdock/2013.1/src/exe/rbdock.cxx#4 $)

>  <Rbt.Library>
libRbt.so (2013.1, Build901 2013/11/27)

>  <Rbt.Parameter_File>
/export/apps/rDock/src/rDock_2013.1_src/data/scripts/dock_solv.prm

>  <Rbt.Receptor>
prm/pocket_docking_8.prm

>  <SCORE>
-12.2726

>  <SCORE.INTER>
-10.3508

>  <SCORE.INTER.CONST>
1

>  <SCORE.INTER.POLAR>
0

>  <SCORE.INTER.ROT>
7

>  <SCORE.INTER.SOLV>
8.96433

>  <SCORE.INTER.VDW>
-18.1553

>  <SCORE.INTER.norm>
-0.383362

>  <SCORE.INTRA>
-1.9218

>  <SCORE.INTRA.DIHEDRAL>
-2.23177

>  <SCORE.INTRA.DIHEDRAL.0>
8.34559

>  <SCORE.INTRA.POLAR>
0

>  <SCORE.INTRA.POLAR.0>
0

>  <SCORE.INTRA.REPUL>
0

>  <SCORE.INTRA.REPUL.0>
0

>  <SCORE.INTRA.SOLV>
-0.34627

>  <SCORE.INTRA.SOLV.lig_0>
-48.829

>  <SCORE.INTRA.VDW>
-0.632783

>  <SCORE.INTRA.VDW.0>
-1.77092

>  <SCORE.INTRA.norm>
-0.071178

>  <SCORE.RESTR>
0

>  <SCORE.RESTR.CAVITY>
0

>  <SCORE.RESTR.norm>
0

>  <SCORE.SYSTEM>
0

>  <SCORE.SYSTEM.CONST>
0

>  <SCORE.SYSTEM.DIHEDRAL>
0

>  <SCORE.SYSTEM.SOLV>
0

>  <SCORE.SYSTEM.norm>
0

>  <SCORE.heavy>
27

>  <SCORE.norm>
-0.45454

>  <RMSD>
5.447

$$$$
ligand
 OpenBabel11021811503D
libRbt.so/2013.1/901 2013/11/27
 27 29  0  0  0  0  0  0  0  0999 V2000
   44.7618  -32.3231 -103.1971 N   0  0  0  0  0  0  0  0  0  0  0  0
   45.7701  -31.9073 -104.1785 C   0  0  2  0  0  0  0  0  0  0  0  0
   47.0106  -32.7611 -104.0211 C   0  0  0  0  0  0  0  0  0  0  0  0
   47.4013  -33.0780 -102.9077 O   0  0  0  0  0  0  0  0  0  0  0  0
   46.1557  -30.4333 -103.9935 C   0  0  0  0  0  0  0  0  0  0  0  0
   45.0277  -29.5176 -104.4475 C   0  0  0  0  0  0  0  0  0  0  0  0
   45.2895  -27.7615 -103.9885 S   0  0  2  0  0  0  0  0  0  0  0  0
   44.0507  -26.8604 -104.9748 C   0  0  0  0  0  0  0  0  0  0  0  0
   46.7196  -27.5150 -105.0387 C   0  0  0  0  0  0  0  0  0  0  0  0
   47.6174  -26.3942 -104.5865 C   0  0  1  0  0  0  0  0  0  0  0  0
   48.0462  -26.6859 -103.2456 O   0  0  0  0  0  0  0  0  0  0  0  0
   48.8022  -26.5585 -105.4508 C   0  0  1  0  0  0  0  0  0  0  0  0
   48.7148  -25.6641 -106.5588 O   0  0  0  0  0  0  0  0  0  0  0  0
   49.9215  -26.1442 -104.5465 C   0  0  1  0  0  0  0  0  0  0  0  0
   50.1220  -24.7172 -104.6174 O   0  0  0  0  0  0  0  0  0  0  0  0
   49.4825  -26.5455 -103.1063 C   0  0  2  0  0  0  0  0  0  0  0  0
   47.6093  -33.1659 -105.0023 O   0  0  0  0  0  0  0  0  0  0  0  0
   48.8126  -30.7646  -99.9522 N   0  0  0  0  0  0  0  0  0  0  0  0
   48.0080  -29.6793 -100.0646 C   0  0  0  0  0  0  0  0  0  0  0  0
   48.2718  -28.6879 -100.9413 N   0  0  0  0  0  0  0  0  0  0  0  0
   49.3972  -28.7030 -101.6738 C   0  0  0  0  0  0  0  0  0  0  0  0
   50.3036  -29.8197 -101.5558 C   0  0  0  0  0  0  0  0  0  0  0  0
   49.9584  -30.8729 -100.6576 C   0  0  0  0  0  0  0  0  0  0  0  0
   50.7749  -31.9748 -100.5031 N   0  0  0  0  0  0  0  0  0  0  0  0
   51.3332  -29.5860 -102.3782 N   0  0  0  0  0  0  0  0  0  0  0  0
   51.1484  -28.4446 -102.9720 C   0  0  0  0  0  0  0  0  0  0  0  0
   49.9674  -27.8563 -102.5837 N   0  0  0  0  0  0  0  0  0  0  0  0
  2  1  1  1  0  0  0
  2  3  1  0  0  0  0
  2  5  1  0  0  0  0
  3  4  1  0  0  0  0
  3 17  1  0  0  0  0
  5  6  1  0  0  0  0
  7  6  1  6  0  0  0
  7  8  1  0  0  0  0
  7  9  1  0  0  0  0
 10  9  1  6  0  0  0
 10 11  1  0  0  0  0
 10 12  1  0  0  0  0
 11 16  1  0  0  0  0
 12 13  1  6  0  0  0
 12 14  1  0  0  0  0
 14 15  1  1  0  0  0
 14 16  1  0  0  0  0
 16 27  1  6  0  0  0
 18 19  2  0  0  0  0
 18 23  1  0  0  0  0
 19 20  1  0  0  0  0
 20 21  2  0  0  0  0
 21 22  1  0  0  0  0
 21 27  1  0  0  0  0
 22 23  2  0  0  0  0
 22 25  1  0  0  0  0
 23 24  1  0  0  0  0
 25 26  2  0  0  0  0
 26 27  1  0  0  0  0
M  END
>  <CHROM.1>
-39.22279544,-72.01650967,169.87646857,166.72106406,-156.17530501,58.12231573
-37.91697916,47.99023884,-28.96624556,-103.32771057,1.64554367,0.49693026
2.71701720

>  <Name>
ligand

>  <RI>
0

>  <Rbt.Current_Directory>
/home/itssahil/PROJECTS/Mol_Feturizer/New_Systems/rnas/4L81

>  <Rbt.Executable>
rbdock ($Id: //depot/dev/client3/rdock/2013.1/src/exe/rbdock.cxx#4 $)

>  <Rbt.Library>
libRbt.so (2013.1, Build901 2013/11/27)

>  <Rbt.Parameter_File>
/export/apps/rDock/src/rDock_2013.1_src/data/scripts/dock_solv.prm

>  <Rbt.Receptor>
prm/pocket_docking_5.prm

>  <SCORE>
-10.9294

>  <SCORE.INTER>
-8.44984

>  <SCORE.INTER.CONST>
1

>  <SCORE.INTER.POLAR>
0

>  <SCORE.INTER.ROT>
7

>  <SCORE.INTER.SOLV>
19.2844

>  <SCORE.INTER.VDW>
-20.328

>  <SCORE.INTER.norm>
-0.312957

>  <SCORE.INTRA>
-2.4796

>  <SCORE.INTRA.DIHEDRAL>
-1.66623

>  <SCORE.INTRA.DIHEDRAL.0>
8.34559

>  <SCORE.INTRA.POLAR>
0

>  <SCORE.INTRA.POLAR.0>
0

>  <SCORE.INTRA.REPUL>
0

>  <SCORE.INTRA.REPUL.0>
0

>  <SCORE.INTRA.SOLV>
-0.679411

>  <SCORE.INTRA.SOLV.lig_0>
-48.829

>  <SCORE.INTRA.VDW>
-1.30678

>  <SCORE.INTRA.VDW.0>
-1.77092

>  <SCORE.INTRA.norm>
-0.091837

>  <SCORE.RESTR>
0

>  <SCORE.RESTR.CAVITY>
0

>  <SCORE.RESTR.norm>
0

>  <SCORE.SYSTEM>
0

>  <SCORE.SYSTEM.CONST>
0

>  <SCORE.SYSTEM.DIHEDRAL>
0

>  <SCORE.SYSTEM.SOLV>
0

>  <SCORE.SYSTEM.norm>
0

>  <SCORE.heavy>
27

>  <SCORE.norm>
-0.404794

>  <RMSD>
5.452

$$$$
ligand
 OpenBabel11021811503D
libRbt.so/2013.1/901 2013/11/27
 27 29  0  0  0  0  0  0  0  0999 V2000
   44.7710  -29.5871 -104.6559 N   0  0  0  0  0  0  0  0  0  0  0  0
   46.1410  -30.0963 -104.5267 C   0  0  2  0  0  0  0  0  0  0  0  0
   46.4161  -31.0926 -105.6333 C   0  0  0  0  0  0  0  0  0  0  0  0
   47.5497  -31.2309 -106.0677 O   0  0  0  0  0  0  0  0  0  0  0  0
   46.3554  -30.7868 -103.1730 C   0  0  0  0  0  0  0  0  0  0  0  0
   46.2931  -29.7781 -102.0349 C   0  0  0  0  0  0  0  0  0  0  0  0
   46.8334  -30.4677 -100.4237 S   0  0  2  0  0  0  0  0  0  0  0  0
   46.2270  -29.2587  -99.2030 C   0  0  0  0  0  0  0  0  0  0  0  0
   48.5311  -29.9108 -100.5528 C   0  0  0  0  0  0  0  0  0  0  0  0
   49.3200  -30.6154 -101.6242 C   0  0  1  0  0  0  0  0  0  0  0  0
   49.0988  -29.9214 -102.8637 O   0  0  0  0  0  0  0  0  0  0  0  0
   50.7161  -30.3406 -101.2331 C   0  0  1  0  0  0  0  0  0  0  0  0
   51.2392  -31.4539 -100.5104 O   0  0  0  0  0  0  0  0  0  0  0  0
   51.4050  -30.2215 -102.5573 C   0  0  1  0  0  0  0  0  0  0  0  0
   51.8354  -31.5192 -103.0177 O   0  0  0  0  0  0  0  0  0  0  0  0
   50.3483  -29.6352 -103.5410 C   0  0  2  0  0  0  0  0  0  0  0  0
   45.5176  -31.7867 -106.0756 O   0  0  0  0  0  0  0  0  0  0  0  0
   49.6267  -25.4564 -106.7371 N   0  0  0  0  0  0  0  0  0  0  0  0
   49.5079  -26.7695 -107.0522 C   0  0  0  0  0  0  0  0  0  0  0  0
   49.6785  -27.7393 -106.1294 N   0  0  0  0  0  0  0  0  0  0  0  0
   50.0614  -27.4347 -104.8788 C   0  0  0  0  0  0  0  0  0  0  0  0
   50.2398  -26.0509 -104.5103 C   0  0  0  0  0  0  0  0  0  0  0  0
   49.9952  -25.0550 -105.5021 C   0  0  0  0  0  0  0  0  0  0  0  0
   50.1373  -23.7126 -105.2149 N   0  0  0  0  0  0  0  0  0  0  0  0
   50.6228  -26.0260 -103.2283 N   0  0  0  0  0  0  0  0  0  0  0  0
   50.7027  -27.2463 -102.7879 C   0  0  0  0  0  0  0  0  0  0  0  0
   50.3609  -28.1591 -103.7582 N   0  0  0  0  0  0  0  0  0  0  0  0
  2  1  1  1  0  0  0
  2  3  1  0  0  0  0
  2  5  1  0  0  0  0
  3  4  1  0  0  0  0
  3 17  1  0  0  0  0
  5  6  1  0  0  0  0
  7  6  1  6  0  0  0
  7  8  1  0  0  0  0
  7  9  1  0  0  0  0
 10  9  1  1  0  0  0
 10 11  1  0  0  0  0
 10 12  1  0  0  0  0
 11 16  1  0  0  0  0
 12 13  1  1  0  0  0
 12 14  1  0  0  0  0
 14 15  1  6  0  0  0
 14 16  1  0  0  0  0
 16 27  1  1  0  0  0
 18 19  2  0  0  0  0
 18 23  1  0  0  0  0
 19 20  1  0  0  0  0
 20 21  2  0  0  0  0
 21 22  1  0  0  0  0
 21 27  1  0  0  0  0
 22 23  2  0  0  0  0
 22 25  1  0  0  0  0
 23 24  1  0  0  0  0
 25 26  2  0  0  0  0
 26 27  1  0  0  0  0
M  END
>  <CHROM.1>
150.11482002,-67.58527460,-169.70651067,-164.52491247,-68.44916261,86.24128051
-99.74998102,48.74662215,-29.10329607,-103.42115273,2.06865680,0.55826213
2.19178750

>  <Name>
ligand

>  <RI>
0

>  <Rbt.Current_Directory>
/home/itssahil/PROJECTS/Mol_Feturizer/New_Systems/rnas/4L81

>  <Rbt.Executable>
rbdock ($Id: //depot/dev/client3/rdock/2013.1/src/exe/rbdock.cxx#4 $)

>  <Rbt.Library>
libRbt.so (2013.1, Build901 2013/11/27)

>  <Rbt.Parameter_File>
/export/apps/rDock/src/rDock_2013.1_src/data/scripts/dock_solv.prm

>  <Rbt.Receptor>
prm/pocket_docking_7.prm

>  <SCORE>
-16.7695

>  <SCORE.INTER>
-15.0175

>  <SCORE.INTER.CONST>
1

>  <SCORE.INTER.POLAR>
0

>  <SCORE.INTER.ROT>
7

>  <SCORE.INTER.SOLV>
10.5592

>  <SCORE.INTER.VDW>
-21.798

>  <SCORE.INTER.norm>
-0.556203

>  <SCORE.INTRA>
-1.75206

>  <SCORE.INTRA.DIHEDRAL>
-0.904345

>  <SCORE.INTRA.DIHEDRAL.0>
8.34559

>  <SCORE.INTRA.POLAR>
0

>  <SCORE.INTRA.POLAR.0>
0

>  <SCORE.INTRA.REPUL>
0

>  <SCORE.INTRA.REPUL.0>
0

>  <SCORE.INTRA.SOLV>
-0.393065

>  <SCORE.INTRA.SOLV.lig_0>
-48.829

>  <SCORE.INTRA.VDW>
-1.10335

>  <SCORE.INTRA.VDW.0>
-1.77092

>  <SCORE.INTRA.norm>
-0.0648911

>  <SCORE.RESTR>
0

>  <SCORE.RESTR.CAVITY>
0

>  <SCORE.RESTR.norm>
0

>  <SCORE.SYSTEM>
0

>  <SCORE.SYSTEM.CONST>
0

>  <SCORE.SYSTEM.DIHEDRAL>
0

>  <SCORE.SYSTEM.SOLV>
0

>  <SCORE.SYSTEM.norm>
0

>  <SCORE.heavy>
27

>  <SCORE.norm>
-0.621094

>  <RMSD>
5.458

$$$$
ligand
 OpenBabel11021811503D
libRbt.so/2013.1/901 2013/11/27
 27 29  0  0  0  0  0  0  0  0999 V2000
   43.4128  -29.6067 -104.2420 N   0  0  0  0  0  0  0  0  0  0  0  0
   44.3074  -29.9938 -103.1453 C   0  0  2  0  0  0  0  0  0  0  0  0
   45.0357  -31.2692 -103.5136 C   0  0  0  0  0  0  0  0  0  0  0  0
   46.1208  -31.2176 -104.0727 O   0  0  0  0  0  0  0  0  0  0  0  0
   43.5280  -30.2259 -101.8437 C   0  0  0  0  0  0  0  0  0  0  0  0
   44.3152  -29.7188 -100.6437 C   0  0  0  0  0  0  0  0  0  0  0  0
   45.9835  -30.4671 -100.5014 S   0  0  2  0  0  0  0  0  0  0  0  0
   46.6052  -29.8534  -98.9025 C   0  0  0  0  0  0  0  0  0  0  0  0
   46.7959  -29.2972 -101.5878 C   0  0  0  0  0  0  0  0  0  0  0  0
   48.0927  -29.8030 -102.1616 C   0  0  1  0  0  0  0  0  0  0  0  0
   48.4660  -28.9324 -103.2431 O   0  0  0  0  0  0  0  0  0  0  0  0
   49.0518  -29.5498 -101.0691 C   0  0  1  0  0  0  0  0  0  0  0  0
   49.2455  -30.7452 -100.3148 O   0  0  0  0  0  0  0  0  0  0  0  0
   50.3051  -29.2060 -101.8129 C   0  0  1  0  0  0  0  0  0  0  0  0
   51.0464  -30.4030 -102.1274 O   0  0  0  0  0  0  0  0  0  0  0  0
   49.8472  -28.5068 -103.1280 C   0  0  2  0  0  0  0  0  0  0  0  0
   44.5623  -32.3547 -103.2263 O   0  0  0  0  0  0  0  0  0  0  0  0
   47.1787  -23.9781 -103.8816 N   0  0  0  0  0  0  0  0  0  0  0  0
   46.7268  -25.2441 -104.0577 C   0  0  0  0  0  0  0  0  0  0  0  0
   47.4993  -26.3174 -103.7888 N   0  0  0  0  0  0  0  0  0  0  0  0
   48.7811  -26.1631 -103.4190 C   0  0  0  0  0  0  0  0  0  0  0  0
   49.3164  -24.8326 -103.2589 C   0  0  0  0  0  0  0  0  0  0  0  0
   48.4488  -23.7261 -103.5001 C   0  0  0  0  0  0  0  0  0  0  0  0
   48.8926  -22.4273 -103.3562 N   0  0  0  0  0  0  0  0  0  0  0  0
   50.5980  -24.9597 -102.8955 N   0  0  0  0  0  0  0  0  0  0  0  0
   50.8943  -26.2235 -102.8282 C   0  0  0  0  0  0  0  0  0  0  0  0
   49.8117  -27.0152 -103.1331 N   0  0  0  0  0  0  0  0  0  0  0  0
  2  1  1  6  0  0  0
  2  3  1  0  0  0  0
  2  5  1  0  0  0  0
  3  4  1  0  0  0  0
  3 17  1  0  0  0  0
  5  6  1  0  0  0  0
  7  6  1  1  0  0  0
  7  8  1  0  0  0  0
  7  9  1  0  0  0  0
 10  9  1  1  0  0  0
 10 11  1  0  0  0  0
 10 12  1  0  0  0  0
 11 16  1  0  0  0  0
 12 13  1  6  0  0  0
 12 14  1  0  0  0  0
 14 15  1  6  0  0  0
 14 16  1  0  0  0  0
 16 27  1  1  0  0  0
 18 19  2  0  0  0  0
 18 23  1  0  0  0  0
 19 20  1  0  0  0  0
 20 21  2  0  0  0  0
 21 22  1  0  0  0  0
 21 27  1  0  0  0  0
 22 23  2  0  0  0  0
 22 25  1  0  0  0  0
 23 24  1  0  0  0  0
 25 26  2  0  0  0  0
 26 27  1  0  0  0  0
M  END
>  <CHROM.1>
91.43931434,-142.13511372,-56.39126526,-173.26781472,-159.12490271,166.15093524
-10.86690730,47.49015144,-28.44160659,-102.45219738,2.17578408,0.23500123
2.75769067

>  <Name>
ligand

>  <RI>
0

>  <Rbt.Current_Directory>
/home/itssahil/PROJECTS/Mol_Feturizer/New_Systems/rnas/4L81

>  <Rbt.Executable>
rbdock ($Id: //depot/dev/client3/rdock/2013.1/src/exe/rbdock.cxx#4 $)

>  <Rbt.Library>
libRbt.so (2013.1, Build901 2013/11/27)

>  <Rbt.Parameter_File>
/export/apps/rDock/src/rDock_2013.1_src/data/scripts/dock_solv.prm

>  <Rbt.Receptor>
prm/pocket_docking_5.prm

>  <SCORE>
-13.669

>  <SCORE.INTER>
-13.8451

>  <SCORE.INTER.CONST>
1

>  <SCORE.INTER.POLAR>
0

>  <SCORE.INTER.ROT>
7

>  <SCORE.INTER.SOLV>
14.153

>  <SCORE.INTER.VDW>
-22.2144

>  <SCORE.INTER.norm>
-0.512781

>  <SCORE.INTRA>
0.176143

>  <SCORE.INTRA.DIHEDRAL>
2.4845

>  <SCORE.INTRA.DIHEDRAL.0>
8.34559

>  <SCORE.INTRA.POLAR>
0

>  <SCORE.INTRA.POLAR.0>
0

>  <SCORE.INTRA.REPUL>
0

>  <SCORE.INTRA.REPUL.0>
0

>  <SCORE.INTRA.SOLV>
-0.366084

>  <SCORE.INTRA.SOLV.lig_0>
-48.829

>  <SCORE.INTRA.VDW>
-0.883063

>  <SCORE.INTRA.VDW.0>
-1.77092

>  <SCORE.INTRA.norm>
0.00652381

>  <SCORE.RESTR>
0

>  <SCORE.RESTR.CAVITY>
0

>  <SCORE.RESTR.norm>
0

>  <SCORE.SYSTEM>
0

>  <SCORE.SYSTEM.CONST>
0

>  <SCORE.SYSTEM.DIHEDRAL>
0

>  <SCORE.SYSTEM.SOLV>
0

>  <SCORE.SYSTEM.norm>
0

>  <SCORE.heavy>
27

>  <SCORE.norm>
-0.506258

>  <RMSD>
5.503

$$$$
ligand
 OpenBabel11021811503D
libRbt.so/2013.1/901 2013/11/27
 27 29  0  0  0  0  0  0  0  0999 V2000
   47.4696  -24.0871 -106.4531 N   0  0  0  0  0  0  0  0  0  0  0  0
   46.0933  -24.0938 -106.9613 C   0  0  2  0  0  0  0  0  0  0  0  0
   45.5974  -22.6695 -107.0958 C   0  0  0  0  0  0  0  0  0  0  0  0
   44.8561  -22.3613 -108.0168 O   0  0  0  0  0  0  0  0  0  0  0  0
   45.1535  -24.8593 -106.0199 C   0  0  0  0  0  0  0  0  0  0  0  0
   45.5474  -26.3274 -105.9379 C   0  0  0  0  0  0  0  0  0  0  0  0
   44.4758  -27.3045 -104.8154 S   0  0  2  0  0  0  0  0  0  0  0  0
   44.9619  -26.7484 -103.1498 C   0  0  0  0  0  0  0  0  0  0  0  0
   45.4474  -28.8067 -104.9058 C   0  0  0  0  0  0  0  0  0  0  0  0
   44.6906  -30.0432 -104.4992 C   0  0  1  0  0  0  0  0  0  0  0  0
   45.4554  -31.1863 -104.9179 O   0  0  0  0  0  0  0  0  0  0  0  0
   44.7695  -30.0024 -103.0262 C   0  0  1  0  0  0  0  0  0  0  0  0
   43.5710  -29.4370 -102.4977 O   0  0  0  0  0  0  0  0  0  0  0  0
   44.8518  -31.4537 -102.6669 C   0  0  1  0  0  0  0  0  0  0  0  0
   43.5289  -32.0143 -102.5369 O   0  0  0  0  0  0  0  0  0  0  0  0
   45.6063  -32.1459 -103.8415 C   0  0  2  0  0  0  0  0  0  0  0  0
   45.9060  -21.8284 -106.2698 O   0  0  0  0  0  0  0  0  0  0  0  0
   50.2417  -33.8477 -105.7945 N   0  0  0  0  0  0  0  0  0  0  0  0
   49.0208  -33.9201 -106.3792 C   0  0  0  0  0  0  0  0  0  0  0  0
   47.9200  -33.4084 -105.7898 N   0  0  0  0  0  0  0  0  0  0  0  0
   47.9851  -32.8852 -104.5547 C   0  0  0  0  0  0  0  0  0  0  0  0
   49.2581  -32.8251 -103.8777 C   0  0  0  0  0  0  0  0  0  0  0  0
   50.4060  -33.3273 -104.5600 C   0  0  0  0  0  0  0  0  0  0  0  0
   51.6555  -33.2919 -103.9750 N   0  0  0  0  0  0  0  0  0  0  0  0
   49.0457  -32.2716 -102.6779 N   0  0  0  0  0  0  0  0  0  0  0  0
   47.7805  -32.0001 -102.5564 C   0  0  0  0  0  0  0  0  0  0  0  0
   47.0761  -32.3491 -103.6850 N   0  0  0  0  0  0  0  0  0  0  0  0
  2  1  1  1  0  0  0
  2  3  1  0  0  0  0
  2  5  1  0  0  0  0
  3  4  1  0  0  0  0
  3 17  1  0  0  0  0
  5  6  1  0  0  0  0
  7  6  1  6  0  0  0
  7  8  1  0  0  0  0
  7  9  1  0  0  0  0
 10  9  1  6  0  0  0
 10 11  1  0  0  0  0
 10 12  1  0  0  0  0
 11 16  1  0  0  0  0
 12 13  1  1  0  0  0
 12 14  1  0  0  0  0
 14 15  1  6  0  0  0
 14 16  1  0  0  0  0
 16 27  1  1  0  0  0
 18 19  2  0  0  0  0
 18 23  1  0  0  0  0
 19 20  1  0  0  0  0
 20 21  2  0  0  0  0
 21 22  1  0  0  0  0
 21 27  1  0  0  0  0
 22 23  2  0  0  0  0
 22 25  1  0  0  0  0
 23 24  1  0  0  0  0
 25 26  2  0  0  0  0
 26 27  1  0  0  0  0
M  END
>  <CHROM.1>
144.25269615,-63.64062229,179.44411885,-72.26358031,-160.13175387,166.30996507
-64.57644762,46.41825170,-29.24532983,-104.72746423,-1.91619881,-0.44072407
2.75758486

>  <Name>
ligand

>  <RI>
0

>  <Rbt.Current_Directory>
/home/itssahil/PROJECTS/Mol_Feturizer/New_Systems/rnas/4L81

>  <Rbt.Executable>
rbdock ($Id: //depot/dev/client3/rdock/2013.1/src/exe/rbdock.cxx#4 $)

>  <Rbt.Library>
libRbt.so (2013.1, Build901 2013/11/27)

>  <Rbt.Parameter_File>
/export/apps/rDock/src/rDock_2013.1_src/data/scripts/dock_solv.prm

>  <Rbt.Receptor>
prm/pocket_docking_7.prm

>  <SCORE>
-14.7113

>  <SCORE.INTER>
-12.9177

>  <SCORE.INTER.CONST>
1

>  <SCORE.INTER.POLAR>
0

>  <SCORE.INTER.ROT>
7

>  <SCORE.INTER.SOLV>
14.0039

>  <SCORE.INTER.VDW>
-21.5464

>  <SCORE.INTER.norm>
-0.478432

>  <SCORE.INTRA>
-1.79364

>  <SCORE.INTRA.DIHEDRAL>
-2.57917

>  <SCORE.INTRA.DIHEDRAL.0>
8.34559

>  <SCORE.INTRA.POLAR>
0

>  <SCORE.INTRA.POLAR.0>
0

>  <SCORE.INTRA.REPUL>
0

>  <SCORE.INTRA.REPUL.0>
0

>  <SCORE.INTRA.SOLV>
-0.353091

>  <SCORE.INTRA.SOLV.lig_0>
-48.829

>  <SCORE.INTRA.VDW>
-0.327511

>  <SCORE.INTRA.VDW.0>
-1.77092

>  <SCORE.INTRA.norm>
-0.0664311

>  <SCORE.RESTR>
0

>  <SCORE.RESTR.CAVITY>
0

>  <SCORE.RESTR.norm>
0

>  <SCORE.SYSTEM>
0

>  <SCORE.SYSTEM.CONST>
0

>  <SCORE.SYSTEM.DIHEDRAL>
0

>  <SCORE.SYSTEM.SOLV>
0

>  <SCORE.SYSTEM.norm>
0

>  <SCORE.heavy>
27

>  <SCORE.norm>
-0.544863

>  <RMSD>
5.506

$$$$
ligand
 OpenBabel11021811503D
libRbt.so/2013.1/901 2013/11/27
 27 29  0  0  0  0  0  0  0  0999 V2000
   45.7938  -30.8886 -105.3536 N   0  0  0  0  0  0  0  0  0  0  0  0
   46.3739  -30.7840 -104.0100 C   0  0  2  0  0  0  0  0  0  0  0  0
   46.2335  -32.1109 -103.2943 C   0  0  0  0  0  0  0  0  0  0  0  0
   47.2269  -32.7134 -102.9164 O   0  0  0  0  0  0  0  0  0  0  0  0
   45.6741  -29.6975 -103.1821 C   0  0  0  0  0  0  0  0  0  0  0  0
   46.5591  -29.2396 -102.0315 C   0  0  0  0  0  0  0  0  0  0  0  0
   46.7698  -30.5116 -100.7273 S   0  0  2  0  0  0  0  0  0  0  0  0
   46.2232  -29.6740  -99.2045 C   0  0  0  0  0  0  0  0  0  0  0  0
   48.5388  -30.2928 -100.5502 C   0  0  0  0  0  0  0  0  0  0  0  0
   49.3435  -30.9632 -101.6318 C   0  0  1  0  0  0  0  0  0  0  0  0
   49.1079  -30.2547 -102.8605 O   0  0  0  0  0  0  0  0  0  0  0  0
   50.7331  -30.6642 -101.2352 C   0  0  1  0  0  0  0  0  0  0  0  0
   51.2799  -31.7771 -100.5296 O   0  0  0  0  0  0  0  0  0  0  0  0
   51.4199  -30.5093 -102.5567 C   0  0  1  0  0  0  0  0  0  0  0  0
   51.8788  -31.7899 -103.0370 O   0  0  0  0  0  0  0  0  0  0  0  0
   50.3513  -29.9308 -103.5321 C   0  0  2  0  0  0  0  0  0  0  0  0
   45.1299  -32.5718 -103.0604 O   0  0  0  0  0  0  0  0  0  0  0  0
   49.4454  -25.7162 -106.6328 N   0  0  0  0  0  0  0  0  0  0  0  0
   49.3367  -27.0262 -106.9644 C   0  0  0  0  0  0  0  0  0  0  0  0
   49.5566  -28.0069 -106.0639 N   0  0  0  0  0  0  0  0  0  0  0  0
   49.9799  -27.7152 -104.8233 C   0  0  0  0  0  0  0  0  0  0  0  0
   50.1490  -26.3344 -104.4395 C   0  0  0  0  0  0  0  0  0  0  0  0
   49.8522  -25.3276 -105.4058 C   0  0  0  0  0  0  0  0  0  0  0  0
   49.9827  -23.9876 -105.1026 N   0  0  0  0  0  0  0  0  0  0  0  0
   50.5780  -26.3226 -103.1720 N   0  0  0  0  0  0  0  0  0  0  0  0
   50.6938  -27.5480 -102.7543 C   0  0  0  0  0  0  0  0  0  0  0  0
   50.3318  -28.4515 -103.7260 N   0  0  0  0  0  0  0  0  0  0  0  0
  2  1  1  6  0  0  0
  2  3  1  0  0  0  0
  2  5  1  0  0  0  0
  3  4  1  0  0  0  0
  3 17  1  0  0  0  0
  5  6  1  0  0  0  0
  7  6  1  6  0  0  0
  7  8  1  0  0  0  0
  7  9  1  0  0  0  0
 10  9  1  1  0  0  0
 10 11  1  0  0  0  0
 10 12  1  0  0  0  0
 11 16  1  0  0  0  0
 12 13  1  6  0  0  0
 12 14  1  0  0  0  0
 14 15  1  6  0  0  0
 14 16  1  0  0  0  0
 16 27  1  1  0  0  0
 18 19  2  0  0  0  0
 18 23  1  0  0  0  0
 19 20  1  0  0  0  0
 20 21  2  0  0  0  0
 21 22  1  0  0  0  0
 21 27  1  0  0  0  0
 22 23  2  0  0  0  0
 22 25  1  0  0  0  0
 23 24  1  0  0  0  0
 25 26  2  0  0  0  0
 26 27  1  0  0  0  0
M  END
>  <CHROM.1>
119.54039476,-159.26345261,-69.50656977,-124.15133838,-78.57279719,69.18224889
-97.60412696,48.70777025,-29.44473362,-103.10691519,2.03476400,0.27027409
2.41202218

>  <Name>
ligand

>  <RI>
0

>  <Rbt.Current_Directory>
/home/itssahil/PROJECTS/Mol_Feturizer/New_Systems/rnas/4L81

>  <Rbt.Executable>
rbdock ($Id: //depot/dev/client3/rdock/2013.1/src/exe/rbdock.cxx#4 $)

>  <Rbt.Library>
libRbt.so (2013.1, Build901 2013/11/27)

>  <Rbt.Parameter_File>
/export/apps/rDock/src/rDock_2013.1_src/data/scripts/dock_solv.prm

>  <Rbt.Receptor>
prm/pocket_docking_3.prm

>  <SCORE>
-18.4735

>  <SCORE.INTER>
-16.4491

>  <SCORE.INTER.CONST>
1

>  <SCORE.INTER.POLAR>
0

>  <SCORE.INTER.ROT>
7

>  <SCORE.INTER.SOLV>
9.4827

>  <SCORE.INTER.VDW>
-22.3936

>  <SCORE.INTER.norm>
-0.609225

>  <SCORE.INTRA>
-2.02445

>  <SCORE.INTRA.DIHEDRAL>
1.6163

>  <SCORE.INTRA.DIHEDRAL.0>
8.34559

>  <SCORE.INTRA.POLAR>
0

>  <SCORE.INTRA.POLAR.0>
0

>  <SCORE.INTRA.REPUL>
0

>  <SCORE.INTRA.REPUL.0>
0

>  <SCORE.INTRA.SOLV>
-0.670826

>  <SCORE.INTRA.SOLV.lig_0>
-48.829

>  <SCORE.INTRA.VDW>
-2.49719

>  <SCORE.INTRA.VDW.0>
-1.77092

>  <SCORE.INTRA.norm>
-0.0749797

>  <SCORE.RESTR>
0

>  <SCORE.RESTR.CAVITY>
0

>  <SCORE.RESTR.norm>
0

>  <SCORE.SYSTEM>
0

>  <SCORE.SYSTEM.CONST>
0

>  <SCORE.SYSTEM.DIHEDRAL>
0

>  <SCORE.SYSTEM.SOLV>
0

>  <SCORE.SYSTEM.norm>
0

>  <SCORE.heavy>
27

>  <SCORE.norm>
-0.684205

>  <RMSD>
5.524

$$$$
ligand
 OpenBabel11021811503D
libRbt.so/2013.1/901 2013/11/27
 27 29  0  0  0  0  0  0  0  0999 V2000
   48.4084  -28.2860 -106.8656 N   0  0  0  0  0  0  0  0  0  0  0  0
   48.7290  -27.5496 -105.6378 C   0  0  2  0  0  0  0  0  0  0  0  0
   49.9020  -26.6269 -105.8937 C   0  0  0  0  0  0  0  0  0  0  0  0
   49.7337  -25.4177 -105.9413 O   0  0  0  0  0  0  0  0  0  0  0  0
   49.0897  -28.5041 -104.4915 C   0  0  0  0  0  0  0  0  0  0  0  0
   47.9265  -29.4334 -104.1746 C   0  0  0  0  0  0  0  0  0  0  0  0
   48.2582  -30.5557 -102.7626 S   0  0  2  0  0  0  0  0  0  0  0  0
   49.5002  -31.7209 -103.4101 C   0  0  0  0  0  0  0  0  0  0  0  0
   46.7897  -31.5574 -102.9833 C   0  0  0  0  0  0  0  0  0  0  0  0
   45.6343  -31.1385 -102.1136 C   0  0  1  0  0  0  0  0  0  0  0  0
   45.8014  -29.7458 -101.7984 O   0  0  0  0  0  0  0  0  0  0  0  0
   44.4856  -31.2249 -103.0359 C   0  0  1  0  0  0  0  0  0  0  0  0
   43.8115  -32.4679 -102.8466 O   0  0  0  0  0  0  0  0  0  0  0  0
   43.6159  -30.0963 -102.5753 C   0  0  1  0  0  0  0  0  0  0  0  0
   42.7419  -30.5367 -101.5153 O   0  0  0  0  0  0  0  0  0  0  0  0
   44.5832  -28.9978 -102.0409 C   0  0  2  0  0  0  0  0  0  0  0  0
   51.0263  -27.0794 -106.0208 O   0  0  0  0  0  0  0  0  0  0  0  0
   47.9833  -25.2075 -103.5479 N   0  0  0  0  0  0  0  0  0  0  0  0
   48.0758  -26.0200 -102.4666 C   0  0  0  0  0  0  0  0  0  0  0  0
   47.1584  -26.9779 -102.2179 N   0  0  0  0  0  0  0  0  0  0  0  0
   46.0681  -27.0994 -102.9924 C   0  0  0  0  0  0  0  0  0  0  0  0
   45.9080  -26.2276 -104.1312 C   0  0  0  0  0  0  0  0  0  0  0  0
   46.9294  -25.2656 -104.3893 C   0  0  0  0  0  0  0  0  0  0  0  0
   46.8447  -24.4072 -105.4667 N   0  0  0  0  0  0  0  0  0  0  0  0
   44.7510  -26.5506 -104.7210 N   0  0  0  0  0  0  0  0  0  0  0  0
   44.1930  -27.5171 -104.0546 C   0  0  0  0  0  0  0  0  0  0  0  0
   44.9620  -27.9035 -102.9818 N   0  0  0  0  0  0  0  0  0  0  0  0
  2  1  1  6  0  0  0
  2  3  1  0  0  0  0
  2  5  1  0  0  0  0
  3  4  1  0  0  0  0
  3 17  1  0  0  0  0
  5  6  1  0  0  0  0
  7  6  1  6  0  0  0
  7  8  1  0  0  0  0
  7  9  1  0  0  0  0
 10  9  1  6  0  0  0
 10 11  1  0  0  0  0
 10 12  1  0  0  0  0
 11 16  1  0  0  0  0
 12 13  1  1  0  0  0
 12 14  1  0  0  0  0
 14 15  1  1  0  0  0
 14 16  1  0  0  0  0
 16 27  1  6  0  0  0
 18 19  2  0  0  0  0
 18 23  1  0  0  0  0
 19 20  1  0  0  0  0
 20 21  2  0  0  0  0
 21 22  1  0  0  0  0
 21 27  1  0  0  0  0
 22 23  2  0  0  0  0
 22 25  1  0  0  0  0
 23 24  1  0  0  0  0
 25 26  2  0  0  0  0
 26 27  1  0  0  0  0
M  END
>  <CHROM.1>
109.07165836,-60.49206208,-177.45323864,-70.34766317,-96.04076224,25.33073078
-42.04280558,46.86166988,-28.47070833,-103.69521795,-0.85728607,-0.35495970
2.86935840

>  <Name>
ligand

>  <RI>
0

>  <Rbt.Current_Directory>
/home/itssahil/PROJECTS/Mol_Feturizer/New_Systems/rnas/4L81

>  <Rbt.Executable>
rbdock ($Id: //depot/dev/client3/rdock/2013.1/src/exe/rbdock.cxx#4 $)

>  <Rbt.Library>
libRbt.so (2013.1, Build901 2013/11/27)

>  <Rbt.Parameter_File>
/export/apps/rDock/src/rDock_2013.1_src/data/scripts/dock_solv.prm

>  <Rbt.Receptor>
prm/pocket_docking_3.prm

>  <SCORE>
-11.8716

>  <SCORE.INTER>
-9.33807

>  <SCORE.INTER.CONST>
1

>  <SCORE.INTER.POLAR>
0

>  <SCORE.INTER.ROT>
7

>  <SCORE.INTER.SOLV>
10.2048

>  <SCORE.INTER.VDW>
-17.8936

>  <SCORE.INTER.norm>
-0.345855

>  <SCORE.INTRA>
-2.5335

>  <SCORE.INTRA.DIHEDRAL>
0.0957137

>  <SCORE.INTRA.DIHEDRAL.0>
8.34559

>  <SCORE.INTRA.POLAR>
0

>  <SCORE.INTRA.POLAR.0>
0

>  <SCORE.INTRA.REPUL>
0

>  <SCORE.INTRA.REPUL.0>
0

>  <SCORE.INTRA.SOLV>
1.63217

>  <SCORE.INTRA.SOLV.lig_0>
-48.829

>  <SCORE.INTRA.VDW>
-3.39744

>  <SCORE.INTRA.VDW.0>
-1.77092

>  <SCORE.INTRA.norm>
-0.0938333

>  <SCORE.RESTR>
0

>  <SCORE.RESTR.CAVITY>
0

>  <SCORE.RESTR.norm>
0

>  <SCORE.SYSTEM>
0

>  <SCORE.SYSTEM.CONST>
0

>  <SCORE.SYSTEM.DIHEDRAL>
0

>  <SCORE.SYSTEM.SOLV>
0

>  <SCORE.SYSTEM.norm>
0

>  <SCORE.heavy>
27

>  <SCORE.norm>
-0.439688

>  <RMSD>
5.539

$$$$
ligand
 OpenBabel11021811503D
libRbt.so/2013.1/901 2013/11/27
 27 29  0  0  0  0  0  0  0  0999 V2000
   47.1671  -31.4110 -105.1327 N   0  0  0  0  0  0  0  0  0  0  0  0
   47.6587  -30.0425 -105.3278 C   0  0  2  0  0  0  0  0  0  0  0  0
   49.1001  -29.9537 -104.8724 C   0  0  0  0  0  0  0  0  0  0  0  0
   49.6395  -30.9168 -104.3487 O   0  0  0  0  0  0  0  0  0  0  0  0
   46.8240  -29.0299 -104.5320 C   0  0  0  0  0  0  0  0  0  0  0  0
   47.1574  -27.6051 -104.9511 C   0  0  0  0  0  0  0  0  0  0  0  0
   46.0615  -26.3487 -104.1871 S   0  0  2  0  0  0  0  0  0  0  0  0
   44.4323  -26.6741 -104.9351 C   0  0  0  0  0  0  0  0  0  0  0  0
   46.5873  -24.9941 -105.2347 C   0  0  0  0  0  0  0  0  0  0  0  0
   47.6764  -24.1484 -104.6303 C   0  0  1  0  0  0  0  0  0  0  0  0
   47.9797  -24.6823 -103.3304 O   0  0  0  0  0  0  0  0  0  0  0  0
   48.8373  -24.4515 -105.4895 C   0  0  1  0  0  0  0  0  0  0  0  0
   48.9818  -23.4320 -106.4770 O   0  0  0  0  0  0  0  0  0  0  0  0
   49.9790  -24.3920 -104.5225 C   0  0  1  0  0  0  0  0  0  0  0  0
   50.4710  -23.0405 -104.4093 O   0  0  0  0  0  0  0  0  0  0  0  0
   49.4071  -24.8629 -103.1516 C   0  0  2  0  0  0  0  0  0  0  0  0
   49.7426  -28.9344 -105.0542 O   0  0  0  0  0  0  0  0  0  0  0  0
   47.5002  -29.3495 -101.0462 N   0  0  0  0  0  0  0  0  0  0  0  0
   46.8848  -28.1439 -101.1219 C   0  0  0  0  0  0  0  0  0  0  0  0
   47.4672  -27.0861 -101.7243 N   0  0  0  0  0  0  0  0  0  0  0  0
   48.7223  -27.1713 -102.1942 C   0  0  0  0  0  0  0  0  0  0  0  0
   49.4308  -28.4248 -102.0977 C   0  0  0  0  0  0  0  0  0  0  0  0
   48.7571  -29.5329 -101.5030 C   0  0  0  0  0  0  0  0  0  0  0  0
   49.3720  -30.7630 -101.3876 N   0  0  0  0  0  0  0  0  0  0  0  0
   50.6452  -28.2382 -102.6278 N   0  0  0  0  0  0  0  0  0  0  0  0
   50.7473  -27.0048 -103.0251 C   0  0  0  0  0  0  0  0  0  0  0  0
   49.5902  -26.2992 -102.7912 N   0  0  0  0  0  0  0  0  0  0  0  0
  2  1  1  1  0  0  0
  2  3  1  0  0  0  0
  2  5  1  0  0  0  0
  3  4  1  0  0  0  0
  3 17  1  0  0  0  0
  5  6  1  0  0  0  0
  7  6  1  6  0  0  0
  7  8  1  0  0  0  0
  7  9  1  0  0  0  0
 10  9  1  6  0  0  0
 10 11  1  0  0  0  0
 10 12  1  0  0  0  0
 11 16  1  0  0  0  0
 12 13  1  6  0  0  0
 12 14  1  0  0  0  0
 14 15  1  1  0  0  0
 14 16  1  0  0  0  0
 16 27  1  6  0  0  0
 18 19  2  0  0  0  0
 18 23  1  0  0  0  0
 19 20  1  0  0  0  0
 20 21  2  0  0  0  0
 21 22  1  0  0  0  0
 21 27  1  0  0  0  0
 22 23  2  0  0  0  0
 22 25  1  0  0  0  0
 23 24  1  0  0  0  0
 25 26  2  0  0  0  0
 26 27  1  0  0  0  0
M  END
>  <CHROM.1>
-4.62550617,-168.71251097,173.20697596,-67.20481932,-95.03451313,-0.74508675
-25.77711366,48.28594409,-27.20922044,-103.78553455,1.58011494,0.47364103
2.86876173

>  <Name>
ligand

>  <RI>
0

>  <Rbt.Current_Directory>
/home/itssahil/PROJECTS/Mol_Feturizer/New_Systems/rnas/4L81

>  <Rbt.Executable>
rbdock ($Id: //depot/dev/client3/rdock/2013.1/src/exe/rbdock.cxx#4 $)

>  <Rbt.Library>
libRbt.so (2013.1, Build901 2013/11/27)

>  <Rbt.Parameter_File>
/export/apps/rDock/src/rDock_2013.1_src/data/scripts/dock_solv.prm

>  <Rbt.Receptor>
prm/pocket_docking_4.prm

>  <SCORE>
-7.2705

>  <SCORE.INTER>
-5.3207

>  <SCORE.INTER.CONST>
1

>  <SCORE.INTER.POLAR>
0

>  <SCORE.INTER.ROT>
7

>  <SCORE.INTER.SOLV>
6.76657

>  <SCORE.INTER.VDW>
-14.0693

>  <SCORE.INTER.norm>
-0.197063

>  <SCORE.INTRA>
-1.95494

>  <SCORE.INTRA.DIHEDRAL>
2.55129

>  <SCORE.INTRA.DIHEDRAL.0>
8.34559

>  <SCORE.INTRA.POLAR>
0

>  <SCORE.INTRA.POLAR.0>
0

>  <SCORE.INTRA.REPUL>
0

>  <SCORE.INTRA.REPUL.0>
0

>  <SCORE.INTRA.SOLV>
0.884402

>  <SCORE.INTRA.SOLV.lig_0>
-48.829

>  <SCORE.INTRA.VDW>
-3.67279

>  <SCORE.INTRA.VDW.0>
-1.77092

>  <SCORE.INTRA.norm>
-0.0724053

>  <SCORE.RESTR>
0.00514737

>  <SCORE.RESTR.CAVITY>
0.00514737

>  <SCORE.RESTR.norm>
0.000190643

>  <SCORE.SYSTEM>
0

>  <SCORE.SYSTEM.CONST>
0

>  <SCORE.SYSTEM.DIHEDRAL>
0

>  <SCORE.SYSTEM.SOLV>
0

>  <SCORE.SYSTEM.norm>
0

>  <SCORE.heavy>
27

>  <SCORE.norm>
-0.269278

>  <RMSD>
5.549

$$$$
ligand
 OpenBabel11021811503D
libRbt.so/2013.1/901 2013/11/27
 27 29  0  0  0  0  0  0  0  0999 V2000
   44.6695  -30.1659 -104.2119 N   0  0  0  0  0  0  0  0  0  0  0  0
   45.9541  -30.8102 -103.9163 C   0  0  2  0  0  0  0  0  0  0  0  0
   46.1333  -32.0157 -104.8149 C   0  0  0  0  0  0  0  0  0  0  0  0
   46.8893  -32.9183 -104.4885 O   0  0  0  0  0  0  0  0  0  0  0  0
   46.0267  -31.2672 -102.4530 C   0  0  0  0  0  0  0  0  0  0  0  0
   45.8876  -30.0819 -101.5082 C   0  0  0  0  0  0  0  0  0  0  0  0
   46.8076  -30.2952  -99.9362 S   0  0  2  0  0  0  0  0  0  0  0  0
   46.3148  -28.8517  -98.9396 C   0  0  0  0  0  0  0  0  0  0  0  0
   48.3715  -29.6854 -100.5617 C   0  0  0  0  0  0  0  0  0  0  0  0
   49.1136  -30.6815 -101.4125 C   0  0  1  0  0  0  0  0  0  0  0  0
   48.6951  -30.4964 -102.7754 O   0  0  0  0  0  0  0  0  0  0  0  0
   50.5070  -30.2021 -101.3328 C   0  0  1  0  0  0  0  0  0  0  0  0
   51.2138  -30.9463 -100.3419 O   0  0  0  0  0  0  0  0  0  0  0  0
   51.0392  -30.5288 -102.6938 C   0  0  1  0  0  0  0  0  0  0  0  0
   51.5509  -31.8774 -102.7221 O   0  0  0  0  0  0  0  0  0  0  0  0
   49.8317  -30.4009 -103.6703 C   0  0  2  0  0  0  0  0  0  0  0  0
   45.5015  -32.1109 -105.8524 O   0  0  0  0  0  0  0  0  0  0  0  0
   50.6066  -25.1534 -103.9175 N   0  0  0  0  0  0  0  0  0  0  0  0
   50.9533  -25.9947 -102.9126 C   0  0  0  0  0  0  0  0  0  0  0  0
   50.7356  -27.3241 -102.9928 N   0  0  0  0  0  0  0  0  0  0  0  0
   50.0828  -27.8489 -104.0425 C   0  0  0  0  0  0  0  0  0  0  0  0
   49.6587  -26.9839 -105.1169 C   0  0  0  0  0  0  0  0  0  0  0  0
   49.9583  -25.5926 -105.0170 C   0  0  0  0  0  0  0  0  0  0  0  0
   49.5906  -24.7107 -106.0128 N   0  0  0  0  0  0  0  0  0  0  0  0
   49.0361  -27.7482 -106.0219 N   0  0  0  0  0  0  0  0  0  0  0  0
   49.0320  -28.9789 -105.6038 C   0  0  0  0  0  0  0  0  0  0  0  0
   49.6697  -29.1049 -104.3917 N   0  0  0  0  0  0  0  0  0  0  0  0
  2  1  1  1  0  0  0
  2  3  1  0  0  0  0
  2  5  1  0  0  0  0
  3  4  1  0  0  0  0
  3 17  1  0  0  0  0
  5  6  1  0  0  0  0
  7  6  1  6  0  0  0
  7  8  1  0  0  0  0
  7  9  1  0  0  0  0
 10  9  1  1  0  0  0
 10 11  1  0  0  0  0
 10 12  1  0  0  0  0
 11 16  1  0  0  0  0
 12 13  1  1  0  0  0
 12 14  1  0  0  0  0
 14 15  1  1  0  0  0
 14 16  1  0  0  0  0
 16 27  1  1  0  0  0
 18 19  2  0  0  0  0
 18 23  1  0  0  0  0
 19 20  1  0  0  0  0
 20 21  2  0  0  0  0
 21 22  1  0  0  0  0
 21 27  1  0  0  0  0
 22 23  2  0  0  0  0
 22 25  1  0  0  0  0
 23 24  1  0  0  0  0
 25 26  2  0  0  0  0
 26 27  1  0  0  0  0
M  END
>  <CHROM.1>
-157.38409977,-60.66687440,-148.89624673,-173.61113886,-77.32116259,89.81888982
87.36573056,48.54337729,-29.49301284,-103.04880385,2.43880119,0.69570555
2.03912461

>  <Name>
ligand

>  <RI>
0

>  <Rbt.Current_Directory>
/home/itssahil/PROJECTS/Mol_Feturizer/New_Systems/rnas/4L81

>  <Rbt.Executable>
rbdock ($Id: //depot/dev/client3/rdock/2013.1/src/exe/rbdock.cxx#4 $)

>  <Rbt.Library>
libRbt.so (2013.1, Build901 2013/11/27)

>  <Rbt.Parameter_File>
/export/apps/rDock/src/rDock_2013.1_src/data/scripts/dock_solv.prm

>  <Rbt.Receptor>
prm/pocket_docking_3.prm

>  <SCORE>
-15.3624

>  <SCORE.INTER>
-14.9396

>  <SCORE.INTER.CONST>
1

>  <SCORE.INTER.POLAR>
0

>  <SCORE.INTER.ROT>
7

>  <SCORE.INTER.SOLV>
10.8747

>  <SCORE.INTER.VDW>
-21.8513

>  <SCORE.INTER.norm>
-0.55332

>  <SCORE.INTRA>
-0.42274

>  <SCORE.INTRA.DIHEDRAL>
1.40271

>  <SCORE.INTRA.DIHEDRAL.0>
8.34559

>  <SCORE.INTRA.POLAR>
0

>  <SCORE.INTRA.POLAR.0>
0

>  <SCORE.INTRA.REPUL>
0

>  <SCORE.INTRA.REPUL.0>
0

>  <SCORE.INTRA.SOLV>
-0.162416

>  <SCORE.INTRA.SOLV.lig_0>
-48.829

>  <SCORE.INTRA.VDW>
-1.04288

>  <SCORE.INTRA.VDW.0>
-1.77092

>  <SCORE.INTRA.norm>
-0.0156571

>  <SCORE.RESTR>
0

>  <SCORE.RESTR.CAVITY>
0

>  <SCORE.RESTR.norm>
0

>  <SCORE.SYSTEM>
0

>  <SCORE.SYSTEM.CONST>
0

>  <SCORE.SYSTEM.DIHEDRAL>
0

>  <SCORE.SYSTEM.SOLV>
0

>  <SCORE.SYSTEM.norm>
0

>  <SCORE.heavy>
27

>  <SCORE.norm>
-0.568977

>  <RMSD>
5.563

$$$$
ligand
 OpenBabel11021811503D
libRbt.so/2013.1/901 2013/11/27
 27 29  0  0  0  0  0  0  0  0999 V2000
   45.2219  -32.2336 -102.9154 N   0  0  0  0  0  0  0  0  0  0  0  0
   46.5091  -32.7137 -103.4307 C   0  0  2  0  0  0  0  0  0  0  0  0
   47.6371  -32.0597 -102.6609 C   0  0  0  0  0  0  0  0  0  0  0  0
   48.7842  -32.4587 -102.7940 O   0  0  0  0  0  0  0  0  0  0  0  0
   46.6713  -32.3871 -104.9214 C   0  0  0  0  0  0  0  0  0  0  0  0
   46.5170  -30.8930 -105.1681 C   0  0  0  0  0  0  0  0  0  0  0  0
   46.7444  -30.4205 -106.9255 S   0  0  2  0  0  0  0  0  0  0  0  0
   48.4808  -30.8485 -107.2741 C   0  0  0  0  0  0  0  0  0  0  0  0
   46.9432  -28.6678 -106.6136 C   0  0  0  0  0  0  0  0  0  0  0  0
   45.6408  -27.9284 -106.4588 C   0  0  1  0  0  0  0  0  0  0  0  0
   44.9074  -28.5461 -105.3875 O   0  0  0  0  0  0  0  0  0  0  0  0
   46.0742  -26.6076 -105.9634 C   0  0  1  0  0  0  0  0  0  0  0  0
   46.1428  -25.6869 -107.0511 O   0  0  0  0  0  0  0  0  0  0  0  0
   44.9580  -26.2266 -105.0408 C   0  0  1  0  0  0  0  0  0  0  0  0
   43.9083  -25.5594 -105.7717 O   0  0  0  0  0  0  0  0  0  0  0  0
   44.4198  -27.5608 -104.4422 C   0  0  2  0  0  0  0  0  0  0  0  0
   47.4155  -31.1107 -101.9293 O   0  0  0  0  0  0  0  0  0  0  0  0
   44.2284  -30.7752 -100.2197 N   0  0  0  0  0  0  0  0  0  0  0  0
   43.4020  -30.7704 -101.2943 C   0  0  0  0  0  0  0  0  0  0  0  0
   43.5861  -29.9224 -102.3277 N   0  0  0  0  0  0  0  0  0  0  0  0
   44.5499  -28.9883 -102.2836 C   0  0  0  0  0  0  0  0  0  0  0  0
   45.4275  -28.9302 -101.1395 C   0  0  0  0  0  0  0  0  0  0  0  0
   45.2323  -29.8815 -100.0944 C   0  0  0  0  0  0  0  0  0  0  0  0
   46.0416  -29.8889  -98.9765 N   0  0  0  0  0  0  0  0  0  0  0  0
   46.2817  -27.9204 -101.3432 N   0  0  0  0  0  0  0  0  0  0  0  0
   46.0071  -27.3587 -102.4828 C   0  0  0  0  0  0  0  0  0  0  0  0
   44.9532  -27.9784 -103.1127 N   0  0  0  0  0  0  0  0  0  0  0  0
  2  1  1  1  0  0  0
  2  3  1  0  0  0  0
  2  5  1  0  0  0  0
  3  4  1  0  0  0  0
  3 17  1  0  0  0  0
  5  6  1  0  0  0  0
  7  6  1  1  0  0  0
  7  8  1  0  0  0  0
  7  9  1  0  0  0  0
 10  9  1  1  0  0  0
 10 11  1  0  0  0  0
 10 12  1  0  0  0  0
 11 16  1  0  0  0  0
 12 13  1  6  0  0  0
 12 14  1  0  0  0  0
 14 15  1  6  0  0  0
 14 16  1  0  0  0  0
 16 27  1  1  0  0  0
 18 19  2  0  0  0  0
 18 23  1  0  0  0  0
 19 20  1  0  0  0  0
 20 21  2  0  0  0  0
 21 22  1  0  0  0  0
 21 27  1  0  0  0  0
 22 23  2  0  0  0  0
 22 25  1  0  0  0  0
 23 24  1  0  0  0  0
 25 26  2  0  0  0  0
 26 27  1  0  0  0  0
M  END
>  <CHROM.1>
169.43040455,56.31740593,178.42180874,-63.94069744,-82.48474130,57.29870535
-75.82052968,45.88151650,-29.45837045,-103.85944877,-1.59102170,1.03356428
-0.98125830

>  <Name>
ligand

>  <RI>
0

>  <Rbt.Current_Directory>
/home/itssahil/PROJECTS/Mol_Feturizer/New_Systems/rnas/4L81

>  <Rbt.Executable>
rbdock ($Id: //depot/dev/client3/rdock/2013.1/src/exe/rbdock.cxx#4 $)

>  <Rbt.Library>
libRbt.so (2013.1, Build901 2013/11/27)

>  <Rbt.Parameter_File>
/export/apps/rDock/src/rDock_2013.1_src/data/scripts/dock_solv.prm

>  <Rbt.Receptor>
prm/pocket_docking_4.prm

>  <SCORE>
-12.8226

>  <SCORE.INTER>
-10.5711

>  <SCORE.INTER.CONST>
1

>  <SCORE.INTER.POLAR>
0

>  <SCORE.INTER.ROT>
7

>  <SCORE.INTER.SOLV>
25.0625

>  <SCORE.INTER.VDW>
-23.6682

>  <SCORE.INTER.norm>
-0.391521

>  <SCORE.INTRA>
-2.87502

>  <SCORE.INTRA.DIHEDRAL>
-4.29127

>  <SCORE.INTRA.DIHEDRAL.0>
8.34559

>  <SCORE.INTRA.POLAR>
0

>  <SCORE.INTRA.POLAR.0>
0

>  <SCORE.INTRA.REPUL>
0

>  <SCORE.INTRA.REPUL.0>
0

>  <SCORE.INTRA.SOLV>
2.27603

>  <SCORE.INTRA.SOLV.lig_0>
-48.829

>  <SCORE.INTRA.VDW>
-1.8674

>  <SCORE.INTRA.VDW.0>
-1.77092

>  <SCORE.INTRA.norm>
-0.106482

>  <SCORE.RESTR>
0.623495

>  <SCORE.RESTR.CAVITY>
0.623495

>  <SCORE.RESTR.norm>
0.0230924

>  <SCORE.SYSTEM>
0

>  <SCORE.SYSTEM.CONST>
0

>  <SCORE.SYSTEM.DIHEDRAL>
0

>  <SCORE.SYSTEM.SOLV>
0

>  <SCORE.SYSTEM.norm>
0

>  <SCORE.heavy>
27

>  <SCORE.norm>
-0.474911

>  <RMSD>
5.568

$$$$
ligand
 OpenBabel11021811503D
libRbt.so/2013.1/901 2013/11/27
 27 29  0  0  0  0  0  0  0  0999 V2000
   44.9363  -29.9648 -104.6265 N   0  0  0  0  0  0  0  0  0  0  0  0
   45.7006  -30.9552 -103.8600 C   0  0  2  0  0  0  0  0  0  0  0  0
   46.0498  -32.1262 -104.7543 C   0  0  0  0  0  0  0  0  0  0  0  0
   45.6457  -32.1612 -105.9067 O   0  0  0  0  0  0  0  0  0  0  0  0
   44.8987  -31.4715 -102.6575 C   0  0  0  0  0  0  0  0  0  0  0  0
   44.8208  -30.4145 -101.5649 C   0  0  0  0  0  0  0  0  0  0  0  0
   46.4637  -29.9100 -100.9249 S   0  0  2  0  0  0  0  0  0  0  0  0
   46.0788  -29.0095  -99.3885 C   0  0  0  0  0  0  0  0  0  0  0  0
   46.6626  -28.5130 -102.0284 C   0  0  0  0  0  0  0  0  0  0  0  0
   47.9566  -27.7680 -101.8355 C   0  0  1  0  0  0  0  0  0  0  0  0
   48.9612  -28.7212 -101.4491 O   0  0  0  0  0  0  0  0  0  0  0  0
   48.2915  -27.3385 -103.2070 C   0  0  1  0  0  0  0  0  0  0  0  0
   47.8707  -25.9894 -103.4027 O   0  0  0  0  0  0  0  0  0  0  0  0
   49.7869  -27.4135 -103.2129 C   0  0  1  0  0  0  0  0  0  0  0  0
   50.3534  -26.1762 -102.7339 O   0  0  0  0  0  0  0  0  0  0  0  0
   50.1634  -28.5764 -102.2464 C   0  0  2  0  0  0  0  0  0  0  0  0
   46.7627  -33.0249 -104.3433 O   0  0  0  0  0  0  0  0  0  0  0  0
   51.7862  -33.6093 -101.7616 N   0  0  0  0  0  0  0  0  0  0  0  0
   51.7830  -32.6453 -100.8084 C   0  0  0  0  0  0  0  0  0  0  0  0
   51.3013  -31.4084 -101.0513 N   0  0  0  0  0  0  0  0  0  0  0  0
   50.8875  -31.0641 -102.2816 C   0  0  0  0  0  0  0  0  0  0  0  0
   50.9119  -32.0474 -103.3376 C   0  0  0  0  0  0  0  0  0  0  0  0
   51.3772  -33.3589 -103.0234 C   0  0  0  0  0  0  0  0  0  0  0  0
   51.4178  -34.3501 -103.9828 N   0  0  0  0  0  0  0  0  0  0  0  0
   50.4593  -31.4519 -104.4472 N   0  0  0  0  0  0  0  0  0  0  0  0
   50.1733  -30.2135 -104.1750 C   0  0  0  0  0  0  0  0  0  0  0  0
   50.4095  -29.9173 -102.8529 N   0  0  0  0  0  0  0  0  0  0  0  0
  2  1  1  6  0  0  0
  2  3  1  0  0  0  0
  2  5  1  0  0  0  0
  3  4  1  0  0  0  0
  3 17  1  0  0  0  0
  5  6  1  0  0  0  0
  7  6  1  6  0  0  0
  7  8  1  0  0  0  0
  7  9  1  0  0  0  0
 10  9  1  6  0  0  0
 10 11  1  0  0  0  0
 10 12  1  0  0  0  0
 11 16  1  0  0  0  0
 12 13  1  1  0  0  0
 12 14  1  0  0  0  0
 14 15  1  1  0  0  0
 14 16  1  0  0  0  0
 16 27  1  6  0  0  0
 18 19  2  0  0  0  0
 18 23  1  0  0  0  0
 19 20  1  0  0  0  0
 20 21  2  0  0  0  0
 21 22  1  0  0  0  0
 21 27  1  0  0  0  0
 22 23  2  0  0  0  0
 22 25  1  0  0  0  0
 23 24  1  0  0  0  0
 25 26  2  0  0  0  0
 26 27  1  0  0  0  0
M  END
>  <CHROM.1>
-3.14482798,-73.31187851,-60.10367018,-165.76257020,-179.89049117,33.26434921
-74.51616837,48.42008732,-30.27921001,-102.72426540,2.54192429,-0.14536745
0.28913913

>  <Name>
ligand

>  <RI>
0

>  <Rbt.Current_Directory>
/home/itssahil/PROJECTS/Mol_Feturizer/New_Systems/rnas/4L81

>  <Rbt.Executable>
rbdock ($Id: //depot/dev/client3/rdock/2013.1/src/exe/rbdock.cxx#4 $)

>  <Rbt.Library>
libRbt.so (2013.1, Build901 2013/11/27)

>  <Rbt.Parameter_File>
/export/apps/rDock/src/rDock_2013.1_src/data/scripts/dock_solv.prm

>  <Rbt.Receptor>
prm/pocket_docking_4.prm

>  <SCORE>
-16.1342

>  <SCORE.INTER>
-15.5023

>  <SCORE.INTER.CONST>
1

>  <SCORE.INTER.POLAR>
0

>  <SCORE.INTER.ROT>
7

>  <SCORE.INTER.SOLV>
11.1544

>  <SCORE.INTER.VDW>
-22.3197

>  <SCORE.INTER.norm>
-0.574159

>  <SCORE.INTRA>
-0.631906

>  <SCORE.INTRA.DIHEDRAL>
-0.745693

>  <SCORE.INTRA.DIHEDRAL.0>
8.34559

>  <SCORE.INTRA.POLAR>
0

>  <SCORE.INTRA.POLAR.0>
0

>  <SCORE.INTRA.REPUL>
0

>  <SCORE.INTRA.REPUL.0>
0

>  <SCORE.INTRA.SOLV>
0.878609

>  <SCORE.INTRA.SOLV.lig_0>
-48.829

>  <SCORE.INTRA.VDW>
-0.698364

>  <SCORE.INTRA.VDW.0>
-1.77092

>  <SCORE.INTRA.norm>
-0.0234039

>  <SCORE.RESTR>
0

>  <SCORE.RESTR.CAVITY>
0

>  <SCORE.RESTR.norm>
0

>  <SCORE.SYSTEM>
0

>  <SCORE.SYSTEM.CONST>
0

>  <SCORE.SYSTEM.DIHEDRAL>
0

>  <SCORE.SYSTEM.SOLV>
0

>  <SCORE.SYSTEM.norm>
0

>  <SCORE.heavy>
27

>  <SCORE.norm>
-0.597563

>  <RMSD>
5.581

$$$$
ligand
 OpenBabel11021811503D
libRbt.so/2013.1/901 2013/11/27
 27 29  0  0  0  0  0  0  0  0999 V2000
   49.7298  -27.5098 -101.8679 N   0  0  0  0  0  0  0  0  0  0  0  0
   49.6998  -28.9750 -101.7964 C   0  0  2  0  0  0  0  0  0  0  0  0
   49.7495  -29.5503 -103.1962 C   0  0  0  0  0  0  0  0  0  0  0  0
   49.9982  -28.8273 -104.1492 O   0  0  0  0  0  0  0  0  0  0  0  0
   48.4269  -29.4746 -101.0997 C   0  0  0  0  0  0  0  0  0  0  0  0
   47.1955  -28.7713 -101.6528 C   0  0  0  0  0  0  0  0  0  0  0  0
   45.7264  -28.9174 -100.5647 S   0  0  2  0  0  0  0  0  0  0  0  0
   46.4277  -28.9614  -98.8837 C   0  0  0  0  0  0  0  0  0  0  0  0
   45.4919  -30.6751 -100.8185 C   0  0  0  0  0  0  0  0  0  0  0  0
   45.0282  -31.0303 -102.2062 C   0  0  1  0  0  0  0  0  0  0  0  0
   44.4594  -29.8495 -102.7971 O   0  0  0  0  0  0  0  0  0  0  0  0
   46.2962  -31.2857 -102.9167 C   0  0  1  0  0  0  0  0  0  0  0  0
   46.5535  -32.6886 -102.9483 O   0  0  0  0  0  0  0  0  0  0  0  0
   45.9982  -30.7893 -104.2976 C   0  0  1  0  0  0  0  0  0  0  0  0
   45.3955  -31.8353 -105.0877 O   0  0  0  0  0  0  0  0  0  0  0  0
   44.9927  -29.6117 -104.1242 C   0  0  2  0  0  0  0  0  0  0  0  0
   49.5749  -30.7422 -103.3796 O   0  0  0  0  0  0  0  0  0  0  0  0
   48.7155  -26.1326 -105.6189 N   0  0  0  0  0  0  0  0  0  0  0  0
   48.6466  -27.4521 -105.9220 C   0  0  0  0  0  0  0  0  0  0  0  0
   47.6175  -28.2221 -105.5107 N   0  0  0  0  0  0  0  0  0  0  0  0
   46.6659  -27.7208 -104.7066 C   0  0  0  0  0  0  0  0  0  0  0  0
   46.7220  -26.3303 -104.3249 C   0  0  0  0  0  0  0  0  0  0  0  0
   47.7973  -25.5388 -104.8274 C   0  0  0  0  0  0  0  0  0  0  0  0
   47.9064  -24.2001 -104.5101 N   0  0  0  0  0  0  0  0  0  0  0  0
   45.6734  -26.0930 -103.5281 N   0  0  0  0  0  0  0  0  0  0  0  0
   44.9969  -27.1932 -103.3819 C   0  0  0  0  0  0  0  0  0  0  0  0
   45.5561  -28.2305 -104.0913 N   0  0  0  0  0  0  0  0  0  0  0  0
  2  1  1  6  0  0  0
  2  3  1  0  0  0  0
  2  5  1  0  0  0  0
  3  4  1  0  0  0  0
  3 17  1  0  0  0  0
  5  6  1  0  0  0  0
  7  6  1  6  0  0  0
  7  8  1  0  0  0  0
  7  9  1  0  0  0  0
 10  9  1  1  0  0  0
 10 11  1  0  0  0  0
 10 12  1  0  0  0  0
 11 16  1  0  0  0  0
 12 13  1  6  0  0  0
 12 14  1  0  0  0  0
 14 15  1  6  0  0  0
 14 16  1  0  0  0  0
 16 27  1  1  0  0  0
 18 19  2  0  0  0  0
 18 23  1  0  0  0  0
 19 20  1  0  0  0  0
 20 21  2  0  0  0  0
 21 22  1  0  0  0  0
 21 27  1  0  0  0  0
 22 23  2  0  0  0  0
 22 25  1  0  0  0  0
 23 24  1  0  0  0  0
 25 26  2  0  0  0  0
 26 27  1  0  0  0  0
M  END
>  <CHROM.1>
10.60140173,47.13659603,-162.57226253,32.33729753,-69.35471298,-19.88642274
144.06389458,47.01225648,-28.84779140,-103.10846934,-1.08413060,0.50013680
2.32272941

>  <Name>
ligand

>  <RI>
0

>  <Rbt.Current_Directory>
/home/itssahil/PROJECTS/Mol_Feturizer/New_Systems/rnas/4L81

>  <Rbt.Executable>
rbdock ($Id: //depot/dev/client3/rdock/2013.1/src/exe/rbdock.cxx#4 $)

>  <Rbt.Library>
libRbt.so (2013.1, Build901 2013/11/27)

>  <Rbt.Parameter_File>
/export/apps/rDock/src/rDock_2013.1_src/data/scripts/dock_solv.prm

>  <Rbt.Receptor>
prm/pocket_docking_2.prm

>  <SCORE>
-1.95671

>  <SCORE.INTER>
-5.51183

>  <SCORE.INTER.CONST>
1

>  <SCORE.INTER.POLAR>
0

>  <SCORE.INTER.ROT>
7

>  <SCORE.INTER.SOLV>
11.7294

>  <SCORE.INTER.VDW>
-15.851

>  <SCORE.INTER.norm>
-0.204142

>  <SCORE.INTRA>
0.95687

>  <SCORE.INTRA.DIHEDRAL>
1.28469

>  <SCORE.INTRA.DIHEDRAL.0>
8.34559

>  <SCORE.INTRA.POLAR>
0

>  <SCORE.INTRA.POLAR.0>
0

>  <SCORE.INTRA.REPUL>
0

>  <SCORE.INTRA.REPUL.0>
0

>  <SCORE.INTRA.SOLV>
0.24819

>  <SCORE.INTRA.SOLV.lig_0>
-48.829

>  <SCORE.INTRA.VDW>
0.190432

>  <SCORE.INTRA.VDW.0>
-1.77092

>  <SCORE.INTRA.norm>
0.0354396

>  <SCORE.RESTR>
2.59825

>  <SCORE.RESTR.CAVITY>
2.59825

>  <SCORE.RESTR.norm>
0.0962315

>  <SCORE.SYSTEM>
0

>  <SCORE.SYSTEM.CONST>
0

>  <SCORE.SYSTEM.DIHEDRAL>
0

>  <SCORE.SYSTEM.SOLV>
0

>  <SCORE.SYSTEM.norm>
0

>  <SCORE.heavy>
27

>  <SCORE.norm>
-0.0724706

>  <RMSD>
5.585

$$$$
ligand
 OpenBabel11021811503D
libRbt.so/2013.1/901 2013/11/27
 27 29  0  0  0  0  0  0  0  0999 V2000
   50.7326  -29.7519 -101.4180 N   0  0  0  0  0  0  0  0  0  0  0  0
   49.3555  -30.0266 -101.8430 C   0  0  2  0  0  0  0  0  0  0  0  0
   48.9564  -29.0475 -102.9269 C   0  0  0  0  0  0  0  0  0  0  0  0
   48.6741  -27.8941 -102.6394 O   0  0  0  0  0  0  0  0  0  0  0  0
   48.3726  -29.8972 -100.6715 C   0  0  0  0  0  0  0  0  0  0  0  0
   47.1033  -30.6936 -100.9393 C   0  0  0  0  0  0  0  0  0  0  0  0
   46.0775  -29.9918 -102.2878 S   0  0  2  0  0  0  0  0  0  0  0  0
   44.7532  -29.0978 -101.4124 C   0  0  0  0  0  0  0  0  0  0  0  0
   45.1998  -31.5104 -102.6516 C   0  0  0  0  0  0  0  0  0  0  0  0
   45.6870  -32.2094 -103.8929 C   0  0  1  0  0  0  0  0  0  0  0  0
   45.3952  -31.3640 -105.0186 O   0  0  0  0  0  0  0  0  0  0  0  0
   47.1527  -32.1897 -103.7225 C   0  0  1  0  0  0  0  0  0  0  0  0
   47.5898  -33.4384 -103.1885 O   0  0  0  0  0  0  0  0  0  0  0  0
   47.6395  -32.0372 -105.1302 C   0  0  1  0  0  0  0  0  0  0  0  0
   47.7737  -33.3294 -105.7576 O   0  0  0  0  0  0  0  0  0  0  0  0
   46.5554  -31.1993 -105.8723 C   0  0  2  0  0  0  0  0  0  0  0  0
   48.9457  -29.3920 -104.0957 O   0  0  0  0  0  0  0  0  0  0  0  0
   44.9450  -26.2343 -104.8955 N   0  0  0  0  0  0  0  0  0  0  0  0
   44.2968  -27.3878 -104.6003 C   0  0  0  0  0  0  0  0  0  0  0  0
   44.8386  -28.5947 -104.8664 N   0  0  0  0  0  0  0  0  0  0  0  0
   46.0088  -28.6913 -105.5180 C   0  0  0  0  0  0  0  0  0  0  0  0
   46.7142  -27.4881 -105.8884 C   0  0  0  0  0  0  0  0  0  0  0  0
   46.1318  -26.2335 -105.5385 C   0  0  0  0  0  0  0  0  0  0  0  0
   46.7574  -25.0444 -105.8535 N   0  0  0  0  0  0  0  0  0  0  0  0
   47.8327  -27.8606 -106.5217 N   0  0  0  0  0  0  0  0  0  0  0  0
   47.8722  -29.1585 -106.5803 C   0  0  0  0  0  0  0  0  0  0  0  0
   46.7779  -29.7272 -105.9713 N   0  0  0  0  0  0  0  0  0  0  0  0
  2  1  1  1  0  0  0
  2  3  1  0  0  0  0
  2  5  1  0  0  0  0
  3  4  1  0  0  0  0
  3 17  1  0  0  0  0
  5  6  1  0  0  0  0
  7  6  1  1  0  0  0
  7  8  1  0  0  0  0
  7  9  1  0  0  0  0
 10  9  1  1  0  0  0
 10 11  1  0  0  0  0
 10 12  1  0  0  0  0
 11 16  1  0  0  0  0
 12 13  1  6  0  0  0
 12 14  1  0  0  0  0
 14 15  1  6  0  0  0
 14 16  1  0  0  0  0
 16 27  1  1  0  0  0
 18 19  2  0  0  0  0
 18 23  1  0  0  0  0
 19 20  1  0  0  0  0
 20 21  2  0  0  0  0
 21 22  1  0  0  0  0
 21 27  1  0  0  0  0
 22 23  2  0  0  0  0
 22 25  1  0  0  0  0
 23 24  1  0  0  0  0
 25 26  2  0  0  0  0
 26 27  1  0  0  0  0
M  END
>  <CHROM.1>
-76.09156726,-157.14384545,-68.71991188,-100.96065998,-103.18539222,-65.33864531
-7.20981319,46.94458078,-29.68985966,-103.94102694,-0.98870433,-1.07343381
0.00874765

>  <Name>
ligand

>  <RI>
0

>  <Rbt.Current_Directory>
/home/itssahil/PROJECTS/Mol_Feturizer/New_Systems/rnas/4L81

>  <Rbt.Executable>
rbdock ($Id: //depot/dev/client3/rdock/2013.1/src/exe/rbdock.cxx#4 $)

>  <Rbt.Library>
libRbt.so (2013.1, Build901 2013/11/27)

>  <Rbt.Parameter_File>
/export/apps/rDock/src/rDock_2013.1_src/data/scripts/dock_solv.prm

>  <Rbt.Receptor>
prm/pocket_docking_4.prm

>  <SCORE>
-10.7618

>  <SCORE.INTER>
-8.20956

>  <SCORE.INTER.CONST>
1

>  <SCORE.INTER.POLAR>
0

>  <SCORE.INTER.ROT>
7

>  <SCORE.INTER.SOLV>
9.34589

>  <SCORE.INTER.VDW>
-16.855

>  <SCORE.INTER.norm>
-0.304058

>  <SCORE.INTRA>
-2.55227

>  <SCORE.INTRA.DIHEDRAL>
2.22127

>  <SCORE.INTRA.DIHEDRAL.0>
8.34559

>  <SCORE.INTRA.POLAR>
0

>  <SCORE.INTRA.POLAR.0>
0

>  <SCORE.INTRA.REPUL>
0

>  <SCORE.INTRA.REPUL.0>
0

>  <SCORE.INTRA.SOLV>
-0.452698

>  <SCORE.INTRA.SOLV.lig_0>
-48.829

>  <SCORE.INTRA.VDW>
-3.43656

>  <SCORE.INTRA.VDW.0>
-1.77092

>  <SCORE.INTRA.norm>
-0.0945286

>  <SCORE.RESTR>
0

>  <SCORE.RESTR.CAVITY>
0

>  <SCORE.RESTR.norm>
0

>  <SCORE.SYSTEM>
0

>  <SCORE.SYSTEM.CONST>
0

>  <SCORE.SYSTEM.DIHEDRAL>
0

>  <SCORE.SYSTEM.SOLV>
0

>  <SCORE.SYSTEM.norm>
0

>  <SCORE.heavy>
27

>  <SCORE.norm>
-0.398587

>  <RMSD>
5.585

$$$$
ligand
 OpenBabel11021811503D
libRbt.so/2013.1/901 2013/11/27
 27 29  0  0  0  0  0  0  0  0999 V2000
   45.7807  -26.0386 -105.1147 N   0  0  0  0  0  0  0  0  0  0  0  0
   45.9636  -26.3515 -103.6929 C   0  0  2  0  0  0  0  0  0  0  0  0
   47.4393  -26.3231 -103.3551 C   0  0  0  0  0  0  0  0  0  0  0  0
   48.2282  -27.0070 -103.9896 O   0  0  0  0  0  0  0  0  0  0  0  0
   45.4027  -27.7380 -103.3491 C   0  0  0  0  0  0  0  0  0  0  0  0
   45.4541  -27.9858 -101.8482 C   0  0  0  0  0  0  0  0  0  0  0  0
   45.3438  -29.7611 -101.4016 S   0  0  2  0  0  0  0  0  0  0  0  0
   45.7019  -29.7877  -99.6154 C   0  0  0  0  0  0  0  0  0  0  0  0
   46.9660  -30.2010 -102.0210 C   0  0  0  0  0  0  0  0  0  0  0  0
   46.9620  -30.6669 -103.4527 C   0  0  1  0  0  0  0  0  0  0  0  0
   48.3284  -30.7644 -103.8889 O   0  0  0  0  0  0  0  0  0  0  0  0
   46.4572  -32.0493 -103.3428 C   0  0  1  0  0  0  0  0  0  0  0  0
   45.0592  -32.0728 -103.6265 O   0  0  0  0  0  0  0  0  0  0  0  0
   47.2109  -32.7554 -104.4270 C   0  0  1  0  0  0  0  0  0  0  0  0
   46.5071  -32.6447 -105.6815 O   0  0  0  0  0  0  0  0  0  0  0  0
   48.5905  -32.0383 -104.5296 C   0  0  2  0  0  0  0  0  0  0  0  0
   47.8559  -25.5945 -102.4716 O   0  0  0  0  0  0  0  0  0  0  0  0
   51.6449  -32.2292 -100.1900 N   0  0  0  0  0  0  0  0  0  0  0  0
   50.6220  -31.3768 -100.4453 C   0  0  0  0  0  0  0  0  0  0  0  0
   49.8930  -31.4617 -101.5777 N   0  0  0  0  0  0  0  0  0  0  0  0
   50.2171  -32.3449 -102.5360 C   0  0  0  0  0  0  0  0  0  0  0  0
   51.3250  -33.2448 -102.3239 C   0  0  0  0  0  0  0  0  0  0  0  0
   52.0340  -33.1578 -101.0890 C   0  0  0  0  0  0  0  0  0  0  0  0
   53.0973  -33.9945 -100.8166 N   0  0  0  0  0  0  0  0  0  0  0  0
   51.4357  -34.0059 -103.4191 N   0  0  0  0  0  0  0  0  0  0  0  0
   50.5191  -33.6550 -104.2713 C   0  0  0  0  0  0  0  0  0  0  0  0
   49.7316  -32.6401 -103.7799 N   0  0  0  0  0  0  0  0  0  0  0  0
  2  1  1  6  0  0  0
  2  3  1  0  0  0  0
  2  5  1  0  0  0  0
  3  4  1  0  0  0  0
  3 17  1  0  0  0  0
  5  6  1  0  0  0  0
  7  6  1  6  0  0  0
  7  8  1  0  0  0  0
  7  9  1  0  0  0  0
 10  9  1  1  0  0  0
 10 11  1  0  0  0  0
 10 12  1  0  0  0  0
 11 16  1  0  0  0  0
 12 13  1  6  0  0  0
 12 14  1  0  0  0  0
 14 15  1  6  0  0  0
 14 16  1  0  0  0  0
 16 27  1  1  0  0  0
 18 19  2  0  0  0  0
 18 23  1  0  0  0  0
 19 20  1  0  0  0  0
 20 21  2  0  0  0  0
 21 22  1  0  0  0  0
 21 27  1  0  0  0  0
 22 23  2  0  0  0  0
 22 25  1  0  0  0  0
 23 24  1  0  0  0  0
 25 26  2  0  0  0  0
 26 27  1  0  0  0  0
M  END
>  <CHROM.1>
-54.66891083,-173.55313247,-160.76055779,171.01972084,-91.78403802,170.28618424
18.34019902,48.06890344,-30.55890788,-102.77976757,-2.44518696,0.52629377
-2.75158844

>  <Name>
ligand

>  <RI>
0

>  <Rbt.Current_Directory>
/home/itssahil/PROJECTS/Mol_Feturizer/New_Systems/rnas/4L81

>  <Rbt.Executable>
rbdock ($Id: //depot/dev/client3/rdock/2013.1/src/exe/rbdock.cxx#4 $)

>  <Rbt.Library>
libRbt.so (2013.1, Build901 2013/11/27)

>  <Rbt.Parameter_File>
/export/apps/rDock/src/rDock_2013.1_src/data/scripts/dock_solv.prm

>  <Rbt.Receptor>
prm/pocket_docking_5.prm

>  <SCORE>
-17.4299

>  <SCORE.INTER>
-14.5576

>  <SCORE.INTER.CONST>
1

>  <SCORE.INTER.POLAR>
0

>  <SCORE.INTER.ROT>
7

>  <SCORE.INTER.SOLV>
14.8281

>  <SCORE.INTER.VDW>
-22.9144

>  <SCORE.INTER.norm>
-0.53917

>  <SCORE.INTRA>
-2.87233

>  <SCORE.INTRA.DIHEDRAL>
-1.75004

>  <SCORE.INTRA.DIHEDRAL.0>
8.34559

>  <SCORE.INTRA.POLAR>
0

>  <SCORE.INTRA.POLAR.0>
0

>  <SCORE.INTRA.REPUL>
0

>  <SCORE.INTRA.REPUL.0>
0

>  <SCORE.INTRA.SOLV>
-1.01466

>  <SCORE.INTRA.SOLV.lig_0>
-48.829

>  <SCORE.INTRA.VDW>
-1.48998

>  <SCORE.INTRA.VDW.0>
-1.77092

>  <SCORE.INTRA.norm>
-0.106383

>  <SCORE.RESTR>
0

>  <SCORE.RESTR.CAVITY>
0

>  <SCORE.RESTR.norm>
0

>  <SCORE.SYSTEM>
0

>  <SCORE.SYSTEM.CONST>
0

>  <SCORE.SYSTEM.DIHEDRAL>
0

>  <SCORE.SYSTEM.SOLV>
0

>  <SCORE.SYSTEM.norm>
0

>  <SCORE.heavy>
27

>  <SCORE.norm>
-0.645552

>  <RMSD>
5.604

$$$$
ligand
 OpenBabel11021811503D
libRbt.so/2013.1/901 2013/11/27
 27 29  0  0  0  0  0  0  0  0999 V2000
   47.0621  -33.2695 -107.2863 N   0  0  0  0  0  0  0  0  0  0  0  0
   46.9115  -31.8373 -107.0056 C   0  0  2  0  0  0  0  0  0  0  0  0
   48.2765  -31.1829 -106.9714 C   0  0  0  0  0  0  0  0  0  0  0  0
   49.2332  -31.7812 -106.5031 O   0  0  0  0  0  0  0  0  0  0  0  0
   46.2148  -31.6020 -105.6585 C   0  0  0  0  0  0  0  0  0  0  0  0
   46.8185  -32.4847 -104.5754 C   0  0  0  0  0  0  0  0  0  0  0  0
   46.6012  -31.8094 -102.8842 S   0  0  2  0  0  0  0  0  0  0  0  0
   44.8817  -31.2073 -102.8693 C   0  0  0  0  0  0  0  0  0  0  0  0
   47.4401  -30.2591 -103.2031 C   0  0  0  0  0  0  0  0  0  0  0  0
   48.9143  -30.4114 -103.4687 C   0  0  1  0  0  0  0  0  0  0  0  0
   49.3469  -29.2677 -104.2248 O   0  0  0  0  0  0  0  0  0  0  0  0
   49.5027  -30.2713 -102.1226 C   0  0  1  0  0  0  0  0  0  0  0  0
   49.7551  -31.5635 -101.5732 O   0  0  0  0  0  0  0  0  0  0  0  0
   50.7975  -29.5750 -102.4071 C   0  0  1  0  0  0  0  0  0  0  0  0
   51.8288  -30.5372 -102.7101 O   0  0  0  0  0  0  0  0  0  0  0  0
   50.5364  -28.6711 -103.6492 C   0  0  2  0  0  0  0  0  0  0  0  0
   48.4386  -30.0696 -107.4397 O   0  0  0  0  0  0  0  0  0  0  0  0
   46.9930  -24.7174 -103.7514 N   0  0  0  0  0  0  0  0  0  0  0  0
   46.8205  -25.9943 -104.1729 C   0  0  0  0  0  0  0  0  0  0  0  0
   47.7953  -26.9196 -104.0517 N   0  0  0  0  0  0  0  0  0  0  0  0
   49.0083  -26.5794 -103.5865 C   0  0  0  0  0  0  0  0  0  0  0  0
   49.2491  -25.2205 -103.1646 C   0  0  0  0  0  0  0  0  0  0  0  0
   48.1737  -24.2877 -103.2582 C   0  0  0  0  0  0  0  0  0  0  0  0
   48.3320  -22.9749 -102.8631 N   0  0  0  0  0  0  0  0  0  0  0  0
   50.5211  -25.1498 -102.7549 N   0  0  0  0  0  0  0  0  0  0  0  0
   51.0745  -26.3177 -102.8930 C   0  0  0  0  0  0  0  0  0  0  0  0
   50.1888  -27.2426 -103.3947 N   0  0  0  0  0  0  0  0  0  0  0  0
  2  1  1  1  0  0  0
  2  3  1  0  0  0  0
  2  5  1  0  0  0  0
  3  4  1  0  0  0  0
  3 17  1  0  0  0  0
  5  6  1  0  0  0  0
  7  6  1  6  0  0  0
  7  8  1  0  0  0  0
  7  9  1  0  0  0  0
 10  9  1  1  0  0  0
 10 11  1  0  0  0  0
 10 12  1  0  0  0  0
 11 16  1  0  0  0  0
 12 13  1  6  0  0  0
 12 14  1  0  0  0  0
 14 15  1  6  0  0  0
 14 16  1  0  0  0  0
 16 27  1  1  0  0  0
 18 19  2  0  0  0  0
 18 23  1  0  0  0  0
 19 20  1  0  0  0  0
 20 21  2  0  0  0  0
 21 22  1  0  0  0  0
 21 27  1  0  0  0  0
 22 23  2  0  0  0  0
 22 25  1  0  0  0  0
 23 24  1  0  0  0  0
 25 26  2  0  0  0  0
 26 27  1  0  0  0  0
M  END
>  <CHROM.1>
-36.74113501,46.40758442,155.15950353,42.65377682,-67.01565936,156.58499360
2.41544839,48.45846418,-29.17275676,-103.97708751,1.86896445,0.62524144,-3.03207431

>  <Name>
ligand

>  <RI>
0

>  <Rbt.Current_Directory>
/home/itssahil/PROJECTS/Mol_Feturizer/New_Systems/rnas/4L81

>  <Rbt.Executable>
rbdock ($Id: //depot/dev/client3/rdock/2013.1/src/exe/rbdock.cxx#4 $)

>  <Rbt.Library>
libRbt.so (2013.1, Build901 2013/11/27)

>  <Rbt.Parameter_File>
/export/apps/rDock/src/rDock_2013.1_src/data/scripts/dock_solv.prm

>  <Rbt.Receptor>
prm/pocket_docking_5.prm

>  <SCORE>
-8.60759

>  <SCORE.INTER>
-7.99898

>  <SCORE.INTER.CONST>
1

>  <SCORE.INTER.POLAR>
0

>  <SCORE.INTER.ROT>
7

>  <SCORE.INTER.SOLV>
12.3452

>  <SCORE.INTER.VDW>
-17.7144

>  <SCORE.INTER.norm>
-0.296259

>  <SCORE.INTRA>
-0.608607

>  <SCORE.INTRA.DIHEDRAL>
-0.499538

>  <SCORE.INTRA.DIHEDRAL.0>
8.34559

>  <SCORE.INTRA.POLAR>
0

>  <SCORE.INTRA.POLAR.0>
0

>  <SCORE.INTRA.REPUL>
0

>  <SCORE.INTRA.REPUL.0>
0

>  <SCORE.INTRA.SOLV>
-0.179463

>  <SCORE.INTRA.SOLV.lig_0>
-48.829

>  <SCORE.INTRA.VDW>
-0.269107

>  <SCORE.INTRA.VDW.0>
-1.77092

>  <SCORE.INTRA.norm>
-0.022541

>  <SCORE.RESTR>
0

>  <SCORE.RESTR.CAVITY>
0

>  <SCORE.RESTR.norm>
0

>  <SCORE.SYSTEM>
0

>  <SCORE.SYSTEM.CONST>
0

>  <SCORE.SYSTEM.DIHEDRAL>
0

>  <SCORE.SYSTEM.SOLV>
0

>  <SCORE.SYSTEM.norm>
0

>  <SCORE.heavy>
27

>  <SCORE.norm>
-0.3188

>  <RMSD>
5.649

$$$$
ligand
 OpenBabel11021811503D
libRbt.so/2013.1/901 2013/11/27
 27 29  0  0  0  0  0  0  0  0999 V2000
   48.8248  -33.3041 -106.4554 N   0  0  0  0  0  0  0  0  0  0  0  0
   49.0763  -33.3397 -105.0103 C   0  0  2  0  0  0  0  0  0  0  0  0
   47.7852  -33.0719 -104.2660 C   0  0  0  0  0  0  0  0  0  0  0  0
   46.8819  -32.4515 -104.8061 O   0  0  0  0  0  0  0  0  0  0  0  0
   50.1142  -32.2872 -104.5976 C   0  0  0  0  0  0  0  0  0  0  0  0
   50.5575  -32.4999 -103.1570 C   0  0  0  0  0  0  0  0  0  0  0  0
   50.4739  -30.9763 -102.1397 S   0  0  2  0  0  0  0  0  0  0  0  0
   50.9368  -31.5377 -100.4693 C   0  0  0  0  0  0  0  0  0  0  0  0
   48.6921  -30.9833 -101.9558 C   0  0  0  0  0  0  0  0  0  0  0  0
   48.1806  -29.9658 -100.9710 C   0  0  1  0  0  0  0  0  0  0  0  0
   48.5494  -28.6621 -101.4519 O   0  0  0  0  0  0  0  0  0  0  0  0
   46.7169  -30.0713 -101.1259 C   0  0  1  0  0  0  0  0  0  0  0  0
   46.1862  -30.9125 -100.1030 O   0  0  0  0  0  0  0  0  0  0  0  0
   46.2668  -28.6594 -100.9113 C   0  0  1  0  0  0  0  0  0  0  0  0
   46.0561  -28.4078  -99.5064 O   0  0  0  0  0  0  0  0  0  0  0  0
   47.4185  -27.7548 -101.4435 C   0  0  2  0  0  0  0  0  0  0  0  0
   47.6241  -33.5005 -103.1367 O   0  0  0  0  0  0  0  0  0  0  0  0
   44.3960  -26.1599 -105.5078 N   0  0  0  0  0  0  0  0  0  0  0  0
   43.9843  -26.6193 -104.3006 C   0  0  0  0  0  0  0  0  0  0  0  0
   44.8617  -26.9551 -103.3319 N   0  0  0  0  0  0  0  0  0  0  0  0
   46.1838  -26.9283 -103.5663 C   0  0  0  0  0  0  0  0  0  0  0  0
   46.6659  -26.4848 -104.8521 C   0  0  0  0  0  0  0  0  0  0  0  0
   45.7051  -26.0862 -105.8286 C   0  0  0  0  0  0  0  0  0  0  0  0
   46.0972  -25.6424 -107.0752 N   0  0  0  0  0  0  0  0  0  0  0  0
   48.0017  -26.5584 -104.8240 N   0  0  0  0  0  0  0  0  0  0  0  0
   48.3754  -27.0070 -103.6627 C   0  0  0  0  0  0  0  0  0  0  0  0
   47.2987  -27.2462 -102.8410 N   0  0  0  0  0  0  0  0  0  0  0  0
  2  1  1  6  0  0  0
  2  3  1  0  0  0  0
  2  5  1  0  0  0  0
  3  4  1  0  0  0  0
  3 17  1  0  0  0  0
  5  6  1  0  0  0  0
  7  6  1  6  0  0  0
  7  8  1  0  0  0  0
  7  9  1  0  0  0  0
 10  9  1  6  0  0  0
 10 11  1  0  0  0  0
 10 12  1  0  0  0  0
 11 16  1  0  0  0  0
 12 13  1  1  0  0  0
 12 14  1  0  0  0  0
 14 15  1  1  0  0  0
 14 16  1  0  0  0  0
 16 27  1  6  0  0  0
 18 19  2  0  0  0  0
 18 23  1  0  0  0  0
 19 20  1  0  0  0  0
 20 21  2  0  0  0  0
 21 22  1  0  0  0  0
 21 27  1  0  0  0  0
 22 23  2  0  0  0  0
 22 25  1  0  0  0  0
 23 24  1  0  0  0  0
 25 26  2  0  0  0  0
 26 27  1  0  0  0  0
M  END
>  <CHROM.1>
-24.34634947,-169.51383859,-129.62318149,176.16883764,171.08351208,61.43917553
144.97234277,47.64636348,-29.56921355,-103.11959883,-0.05287180,1.03443596
-1.73961410

>  <Name>
ligand

>  <RI>
0

>  <Rbt.Current_Directory>
/home/itssahil/PROJECTS/Mol_Feturizer/New_Systems/rnas/4L81

>  <Rbt.Executable>
rbdock ($Id: //depot/dev/client3/rdock/2013.1/src/exe/rbdock.cxx#4 $)

>  <Rbt.Library>
libRbt.so (2013.1, Build901 2013/11/27)

>  <Rbt.Parameter_File>
/export/apps/rDock/src/rDock_2013.1_src/data/scripts/dock_solv.prm

>  <Rbt.Receptor>
prm/pocket_docking_5.prm

>  <SCORE>
-13.9428

>  <SCORE.INTER>
-12.7292

>  <SCORE.INTER.CONST>
1

>  <SCORE.INTER.POLAR>
0

>  <SCORE.INTER.ROT>
7

>  <SCORE.INTER.SOLV>
12.9539

>  <SCORE.INTER.VDW>
-21.0707

>  <SCORE.INTER.norm>
-0.471451

>  <SCORE.INTRA>
-1.21361

>  <SCORE.INTRA.DIHEDRAL>
0.702992

>  <SCORE.INTRA.DIHEDRAL.0>
8.34559

>  <SCORE.INTRA.POLAR>
0

>  <SCORE.INTRA.POLAR.0>
0

>  <SCORE.INTRA.REPUL>
0

>  <SCORE.INTRA.REPUL.0>
0

>  <SCORE.INTRA.SOLV>
-1.26313

>  <SCORE.INTRA.SOLV.lig_0>
-48.829

>  <SCORE.INTRA.VDW>
-0.933536

>  <SCORE.INTRA.VDW.0>
-1.77092

>  <SCORE.INTRA.norm>
-0.0449484

>  <SCORE.RESTR>
0

>  <SCORE.RESTR.CAVITY>
0

>  <SCORE.RESTR.norm>
0

>  <SCORE.SYSTEM>
0

>  <SCORE.SYSTEM.CONST>
0

>  <SCORE.SYSTEM.DIHEDRAL>
0

>  <SCORE.SYSTEM.SOLV>
0

>  <SCORE.SYSTEM.norm>
0

>  <SCORE.heavy>
27

>  <SCORE.norm>
-0.516399

>  <RMSD>
5.659

$$$$
ligand
 OpenBabel11021811503D
libRbt.so/2013.1/901 2013/11/27
 27 29  0  0  0  0  0  0  0  0999 V2000
   44.6948  -29.6978 -104.4038 N   0  0  0  0  0  0  0  0  0  0  0  0
   45.4464  -30.7050 -103.6465 C   0  0  2  0  0  0  0  0  0  0  0  0
   45.7803  -31.8722 -104.5515 C   0  0  0  0  0  0  0  0  0  0  0  0
   45.5414  -31.8100 -105.7481 O   0  0  0  0  0  0  0  0  0  0  0  0
   44.6382  -31.2217 -102.4485 C   0  0  0  0  0  0  0  0  0  0  0  0
   44.8055  -30.3034 -101.2462 C   0  0  0  0  0  0  0  0  0  0  0  0
   46.4541  -30.4381 -100.4541 S   0  0  2  0  0  0  0  0  0  0  0  0
   46.4152  -29.1750  -99.1416 C   0  0  0  0  0  0  0  0  0  0  0  0
   47.3312  -29.5115 -101.7113 C   0  0  0  0  0  0  0  0  0  0  0  0
   48.5625  -30.2069 -102.2281 C   0  0  1  0  0  0  0  0  0  0  0  0
   48.7833  -29.7674 -103.5790 O   0  0  0  0  0  0  0  0  0  0  0  0
   49.6383  -29.6114 -101.4122 C   0  0  1  0  0  0  0  0  0  0  0  0
   49.9492  -30.4784 -100.3227 O   0  0  0  0  0  0  0  0  0  0  0  0
   50.7855  -29.5666 -102.3734 C   0  0  1  0  0  0  0  0  0  0  0  0
   51.5131  -30.8121 -102.3449 O   0  0  0  0  0  0  0  0  0  0  0  0
   50.1576  -29.3533 -103.7835 C   0  0  2  0  0  0  0  0  0  0  0  0
   46.3191  -32.8678 -104.1005 O   0  0  0  0  0  0  0  0  0  0  0  0
   48.7226  -24.2849 -103.1126 N   0  0  0  0  0  0  0  0  0  0  0  0
   48.5143  -25.3230 -102.2660 C   0  0  0  0  0  0  0  0  0  0  0  0
   48.9698  -26.5637 -102.5384 N   0  0  0  0  0  0  0  0  0  0  0  0
   49.5725  -26.8302 -103.7086 C   0  0  0  0  0  0  0  0  0  0  0  0
   49.7787  -25.7630 -104.6578 C   0  0  0  0  0  0  0  0  0  0  0  0
   49.3306  -24.4551 -104.3057 C   0  0  0  0  0  0  0  0  0  0  0  0
   49.5046  -23.3870 -105.1622 N   0  0  0  0  0  0  0  0  0  0  0  0
   50.3865  -26.2918 -105.7263 N   0  0  0  0  0  0  0  0  0  0  0  0
   50.5606  -27.5642 -105.5261 C   0  0  0  0  0  0  0  0  0  0  0  0
   50.0855  -27.9537 -104.2956 N   0  0  0  0  0  0  0  0  0  0  0  0
  2  1  1  6  0  0  0
  2  3  1  0  0  0  0
  2  5  1  0  0  0  0
  3  4  1  0  0  0  0
  3 17  1  0  0  0  0
  5  6  1  0  0  0  0
  7  6  1  6  0  0  0
  7  8  1  0  0  0  0
  7  9  1  0  0  0  0
 10  9  1  1  0  0  0
 10 11  1  0  0  0  0
 10 12  1  0  0  0  0
 11 16  1  0  0  0  0
 12 13  1  1  0  0  0
 12 14  1  0  0  0  0
 14 15  1  6  0  0  0
 14 16  1  0  0  0  0
 16 27  1  1  0  0  0
 18 19  2  0  0  0  0
 18 23  1  0  0  0  0
 19 20  1  0  0  0  0
 20 21  2  0  0  0  0
 21 22  1  0  0  0  0
 21 27  1  0  0  0  0
 22 23  2  0  0  0  0
 22 25  1  0  0  0  0
 23 24  1  0  0  0  0
 25 26  2  0  0  0  0
 26 27  1  0  0  0  0
M  END
>  <CHROM.1>
7.18455641,-84.74705871,-72.91480941,176.39492799,-129.62637680,152.00965856
61.26899485,48.11872949,-28.91528371,-102.98175161,2.38413756,0.70467018
2.23500738

>  <Name>
ligand

>  <RI>
0

>  <Rbt.Current_Directory>
/home/itssahil/PROJECTS/Mol_Feturizer/New_Systems/rnas/4L81

>  <Rbt.Executable>
rbdock ($Id: //depot/dev/client3/rdock/2013.1/src/exe/rbdock.cxx#4 $)

>  <Rbt.Library>
libRbt.so (2013.1, Build901 2013/11/27)

>  <Rbt.Parameter_File>
/export/apps/rDock/src/rDock_2013.1_src/data/scripts/dock_solv.prm

>  <Rbt.Receptor>
prm/pocket_docking_4.prm

>  <SCORE>
-14.2841

>  <SCORE.INTER>
-15.1668

>  <SCORE.INTER.CONST>
1

>  <SCORE.INTER.POLAR>
0

>  <SCORE.INTER.ROT>
7

>  <SCORE.INTER.SOLV>
7.71505

>  <SCORE.INTER.VDW>
-20.9495

>  <SCORE.INTER.norm>
-0.561733

>  <SCORE.INTRA>
0.869672

>  <SCORE.INTRA.DIHEDRAL>
4.3656

>  <SCORE.INTRA.DIHEDRAL.0>
8.34559

>  <SCORE.INTRA.POLAR>
0

>  <SCORE.INTRA.POLAR.0>
0

>  <SCORE.INTRA.REPUL>
0

>  <SCORE.INTRA.REPUL.0>
0

>  <SCORE.INTRA.SOLV>
0.631456

>  <SCORE.INTRA.SOLV.lig_0>
-48.829

>  <SCORE.INTRA.VDW>
-1.62886

>  <SCORE.INTRA.VDW.0>
-1.77092

>  <SCORE.INTRA.norm>
0.0322101

>  <SCORE.RESTR>
0.0129794

>  <SCORE.RESTR.CAVITY>
0.0129794

>  <SCORE.RESTR.norm>
0.000480717

>  <SCORE.SYSTEM>
0

>  <SCORE.SYSTEM.CONST>
0

>  <SCORE.SYSTEM.DIHEDRAL>
0

>  <SCORE.SYSTEM.SOLV>
0

>  <SCORE.SYSTEM.norm>
0

>  <SCORE.heavy>
27

>  <SCORE.norm>
-0.529043

>  <RMSD>
5.668

$$$$
ligand
 OpenBabel11021811503D
libRbt.so/2013.1/901 2013/11/27
 27 29  0  0  0  0  0  0  0  0999 V2000
   42.9856  -31.4727 -101.8003 N   0  0  0  0  0  0  0  0  0  0  0  0
   43.5068  -30.1510 -102.1666 C   0  0  2  0  0  0  0  0  0  0  0  0
   44.1949  -30.2346 -103.5128 C   0  0  0  0  0  0  0  0  0  0  0  0
   43.9621  -29.4004 -104.3747 O   0  0  0  0  0  0  0  0  0  0  0  0
   44.5126  -29.6389 -101.1266 C   0  0  0  0  0  0  0  0  0  0  0  0
   45.6020  -30.6713 -100.8730 C   0  0  0  0  0  0  0  0  0  0  0  0
   47.0773  -29.9779 -100.0327 S   0  0  2  0  0  0  0  0  0  0  0  0
   46.4039  -28.6383  -98.9974 C   0  0  0  0  0  0  0  0  0  0  0  0
   47.6345  -29.0029 -101.4282 C   0  0  0  0  0  0  0  0  0  0  0  0
   48.6757  -29.6907 -102.2707 C   0  0  1  0  0  0  0  0  0  0  0  0
   48.6792  -29.0655 -103.5653 O   0  0  0  0  0  0  0  0  0  0  0  0
   49.9368  -29.2988 -101.6122 C   0  0  1  0  0  0  0  0  0  0  0  0
   50.3637  -30.3406 -100.7359 O   0  0  0  0  0  0  0  0  0  0  0  0
   50.8821  -29.1832 -102.7677 C   0  0  1  0  0  0  0  0  0  0  0  0
   51.4814  -30.4635 -103.0558 O   0  0  0  0  0  0  0  0  0  0  0  0
   50.0235  -28.7162 -103.9813 C   0  0  2  0  0  0  0  0  0  0  0  0
   45.0094  -31.1131 -103.7357 O   0  0  0  0  0  0  0  0  0  0  0  0
   48.4458  -23.8128 -102.6908 N   0  0  0  0  0  0  0  0  0  0  0  0
   48.1586  -24.9709 -102.0471 C   0  0  0  0  0  0  0  0  0  0  0  0
   48.6607  -26.1544 -102.4572 N   0  0  0  0  0  0  0  0  0  0  0  0
   49.3958  -26.2348 -103.5782 C   0  0  0  0  0  0  0  0  0  0  0  0
   49.6919  -25.0318 -104.3183 C   0  0  0  0  0  0  0  0  0  0  0  0
   49.1873  -23.7945 -103.8185 C   0  0  0  0  0  0  0  0  0  0  0  0
   49.4409  -22.6052 -104.4712 N   0  0  0  0  0  0  0  0  0  0  0  0
   50.4246  -25.3873 -105.3802 N   0  0  0  0  0  0  0  0  0  0  0  0
   50.5941  -26.6759 -105.3638 C   0  0  0  0  0  0  0  0  0  0  0  0
   49.9888  -27.2532 -104.2720 N   0  0  0  0  0  0  0  0  0  0  0  0
  2  1  1  1  0  0  0
  2  3  1  0  0  0  0
  2  5  1  0  0  0  0
  3  4  1  0  0  0  0
  3 17  1  0  0  0  0
  5  6  1  0  0  0  0
  7  6  1  6  0  0  0
  7  8  1  0  0  0  0
  7  9  1  0  0  0  0
 10  9  1  1  0  0  0
 10 11  1  0  0  0  0
 10 12  1  0  0  0  0
 11 16  1  0  0  0  0
 12 13  1  1  0  0  0
 12 14  1  0  0  0  0
 14 15  1  6  0  0  0
 14 16  1  0  0  0  0
 16 27  1  1  0  0  0
 18 19  2  0  0  0  0
 18 23  1  0  0  0  0
 19 20  1  0  0  0  0
 20 21  2  0  0  0  0
 21 22  1  0  0  0  0
 21 27  1  0  0  0  0
 22 23  2  0  0  0  0
 22 25  1  0  0  0  0
 23 24  1  0  0  0  0
 25 26  2  0  0  0  0
 26 27  1  0  0  0  0
M  END
>  <CHROM.1>
132.99182275,52.67486362,163.52354412,31.01569642,-95.50248286,159.39270371
42.81767313,47.88734837,-28.29208476,-102.60060339,2.29507474,0.00113335
2.71291663

>  <Name>
ligand

>  <RI>
0

>  <Rbt.Current_Directory>
/home/itssahil/PROJECTS/Mol_Feturizer/New_Systems/rnas/4L81

>  <Rbt.Executable>
rbdock ($Id: //depot/dev/client3/rdock/2013.1/src/exe/rbdock.cxx#4 $)

>  <Rbt.Library>
libRbt.so (2013.1, Build901 2013/11/27)

>  <Rbt.Parameter_File>
/export/apps/rDock/src/rDock_2013.1_src/data/scripts/dock_solv.prm

>  <Rbt.Receptor>
prm/pocket_docking_6.prm

>  <SCORE>
-16.1613

>  <SCORE.INTER>
-16.2637

>  <SCORE.INTER.CONST>
1

>  <SCORE.INTER.POLAR>
0

>  <SCORE.INTER.ROT>
7

>  <SCORE.INTER.SOLV>
13.8358

>  <SCORE.INTER.VDW>
-23.7211

>  <SCORE.INTER.norm>
-0.602361

>  <SCORE.INTRA>
0.10239

>  <SCORE.INTRA.DIHEDRAL>
0.326599

>  <SCORE.INTRA.DIHEDRAL.0>
8.34559

>  <SCORE.INTRA.POLAR>
0

>  <SCORE.INTRA.POLAR.0>
0

>  <SCORE.INTRA.REPUL>
0

>  <SCORE.INTRA.REPUL.0>
0

>  <SCORE.INTRA.SOLV>
-0.432843

>  <SCORE.INTRA.SOLV.lig_0>
-48.829

>  <SCORE.INTRA.VDW>
0.155512

>  <SCORE.INTRA.VDW.0>
-1.77092

>  <SCORE.INTRA.norm>
0.00379223

>  <SCORE.RESTR>
0

>  <SCORE.RESTR.CAVITY>
0

>  <SCORE.RESTR.norm>
0

>  <SCORE.SYSTEM>
0

>  <SCORE.SYSTEM.CONST>
0

>  <SCORE.SYSTEM.DIHEDRAL>
0

>  <SCORE.SYSTEM.SOLV>
0

>  <SCORE.SYSTEM.norm>
0

>  <SCORE.heavy>
27

>  <SCORE.norm>
-0.598568

>  <RMSD>
5.670

$$$$
ligand
 OpenBabel11021811503D
libRbt.so/2013.1/901 2013/11/27
 27 29  0  0  0  0  0  0  0  0999 V2000
   48.9243  -33.5289 -104.9856 N   0  0  0  0  0  0  0  0  0  0  0  0
   47.6512  -32.8013 -105.0346 C   0  0  2  0  0  0  0  0  0  0  0  0
   47.8810  -31.4188 -105.6079 C   0  0  0  0  0  0  0  0  0  0  0  0
   48.9745  -30.8840 -105.5028 O   0  0  0  0  0  0  0  0  0  0  0  0
   47.0327  -32.6621 -103.6369 C   0  0  0  0  0  0  0  0  0  0  0  0
   45.6792  -31.9698 -103.7104 C   0  0  0  0  0  0  0  0  0  0  0  0
   45.1921  -31.1599 -102.1387 S   0  0  2  0  0  0  0  0  0  0  0  0
   43.6977  -30.2142 -102.5768 C   0  0  0  0  0  0  0  0  0  0  0  0
   46.3998  -29.8406 -102.2373 C   0  0  0  0  0  0  0  0  0  0  0  0
   47.8026  -30.2776 -101.9086 C   0  0  1  0  0  0  0  0  0  0  0  0
   48.6930  -29.6401 -102.8401 O   0  0  0  0  0  0  0  0  0  0  0  0
   48.0418  -29.6427 -100.5982 C   0  0  1  0  0  0  0  0  0  0  0  0
   47.8046  -30.5888  -99.5570 O   0  0  0  0  0  0  0  0  0  0  0  0
   49.4999  -29.3083 -100.6627 C   0  0  1  0  0  0  0  0  0  0  0  0
   50.2919  -30.4283 -100.2156 O   0  0  0  0  0  0  0  0  0  0  0  0
   49.8069  -29.0081 -102.1605 C   0  0  2  0  0  0  0  0  0  0  0  0
   46.9892  -30.8433 -106.2065 O   0  0  0  0  0  0  0  0  0  0  0  0
   47.0756  -24.6853 -103.5930 N   0  0  0  0  0  0  0  0  0  0  0  0
   46.5844  -25.9122 -103.2906 C   0  0  0  0  0  0  0  0  0  0  0  0
   47.3888  -26.9219 -102.8977 N   0  0  0  0  0  0  0  0  0  0  0  0
   48.7226  -26.7669 -102.8786 C   0  0  0  0  0  0  0  0  0  0  0  0
   49.2919  -25.4891 -103.2328 C   0  0  0  0  0  0  0  0  0  0  0  0
   48.4016  -24.4327 -103.5887 C   0  0  0  0  0  0  0  0  0  0  0  0
   48.8779  -23.1828 -103.9288 N   0  0  0  0  0  0  0  0  0  0  0  0
   50.6217  -25.6051 -103.1378 N   0  0  0  0  0  0  0  0  0  0  0  0
   50.9146  -26.8178 -102.7732 C   0  0  0  0  0  0  0  0  0  0  0  0
   49.7841  -27.5795 -102.5904 N   0  0  0  0  0  0  0  0  0  0  0  0
  2  1  1  1  0  0  0
  2  3  1  0  0  0  0
  2  5  1  0  0  0  0
  3  4  1  0  0  0  0
  3 17  1  0  0  0  0
  5  6  1  0  0  0  0
  7  6  1  6  0  0  0
  7  8  1  0  0  0  0
  7  9  1  0  0  0  0
 10  9  1  6  0  0  0
 10 11  1  0  0  0  0
 10 12  1  0  0  0  0
 11 16  1  0  0  0  0
 12 13  1  1  0  0  0
 12 14  1  0  0  0  0
 14 15  1  6  0  0  0
 14 16  1  0  0  0  0
 16 27  1  1  0  0  0
 18 19  2  0  0  0  0
 18 23  1  0  0  0  0
 19 20  1  0  0  0  0
 20 21  2  0  0  0  0
 21 22  1  0  0  0  0
 21 27  1  0  0  0  0
 22 23  2  0  0  0  0
 22 25  1  0  0  0  0
 23 24  1  0  0  0  0
 25 26  2  0  0  0  0
 26 27  1  0  0  0  0
M  END
>  <CHROM.1>
-26.33129610,-177.06576751,-156.45062826,171.58634117,-75.47912046,138.87192943
34.35202033,47.91879622,-29.14331210,-102.96776300,2.08157405,0.87895691
2.79914211

>  <Name>
ligand

>  <RI>
0

>  <Rbt.Current_Directory>
/home/itssahil/PROJECTS/Mol_Feturizer/New_Systems/rnas/4L81

>  <Rbt.Executable>
rbdock ($Id: //depot/dev/client3/rdock/2013.1/src/exe/rbdock.cxx#4 $)

>  <Rbt.Library>
libRbt.so (2013.1, Build901 2013/11/27)

>  <Rbt.Parameter_File>
/export/apps/rDock/src/rDock_2013.1_src/data/scripts/dock_solv.prm

>  <Rbt.Receptor>
prm/pocket_docking_4.prm

>  <SCORE>
-14.9479

>  <SCORE.INTER>
-13.4537

>  <SCORE.INTER.CONST>
1

>  <SCORE.INTER.POLAR>
0

>  <SCORE.INTER.ROT>
7

>  <SCORE.INTER.SOLV>
9.53755

>  <SCORE.INTER.VDW>
-20.415

>  <SCORE.INTER.norm>
-0.498285

>  <SCORE.INTRA>
-1.7114

>  <SCORE.INTRA.DIHEDRAL>
0.891437

>  <SCORE.INTRA.DIHEDRAL.0>
8.34559

>  <SCORE.INTRA.POLAR>
0

>  <SCORE.INTRA.POLAR.0>
0

>  <SCORE.INTRA.REPUL>
0

>  <SCORE.INTRA.REPUL.0>
0

>  <SCORE.INTRA.SOLV>
-0.941147

>  <SCORE.INTRA.SOLV.lig_0>
-48.829

>  <SCORE.INTRA.VDW>
-1.68654

>  <SCORE.INTRA.VDW.0>
-1.77092

>  <SCORE.INTRA.norm>
-0.0633852

>  <SCORE.RESTR>
0.217187

>  <SCORE.RESTR.CAVITY>
0.217187

>  <SCORE.RESTR.norm>
0.00804395

>  <SCORE.SYSTEM>
0

>  <SCORE.SYSTEM.CONST>
0

>  <SCORE.SYSTEM.DIHEDRAL>
0

>  <SCORE.SYSTEM.SOLV>
0

>  <SCORE.SYSTEM.norm>
0

>  <SCORE.heavy>
27

>  <SCORE.norm>
-0.553626

>  <RMSD>
5.673

$$$$
ligand
 OpenBabel11021811503D
libRbt.so/2013.1/901 2013/11/27
 27 29  0  0  0  0  0  0  0  0999 V2000
   46.3545  -27.0177 -107.0312 N   0  0  0  0  0  0  0  0  0  0  0  0
   45.5269  -27.3185 -105.8576 C   0  0  2  0  0  0  0  0  0  0  0  0
   44.6024  -26.1521 -105.5790 C   0  0  0  0  0  0  0  0  0  0  0  0
   44.9659  -25.0098 -105.8151 O   0  0  0  0  0  0  0  0  0  0  0  0
   46.3908  -27.5744 -104.6152 C   0  0  0  0  0  0  0  0  0  0  0  0
   47.1864  -28.8633 -104.7652 C   0  0  0  0  0  0  0  0  0  0  0  0
   48.3822  -29.1407 -103.4027 S   0  0  2  0  0  0  0  0  0  0  0  0
   49.8408  -28.1652 -103.8932 C   0  0  0  0  0  0  0  0  0  0  0  0
   48.9201  -30.7543 -103.9645 C   0  0  0  0  0  0  0  0  0  0  0  0
   49.6039  -31.5697 -102.8994 C   0  0  1  0  0  0  0  0  0  0  0  0
   49.5735  -32.9470 -103.3106 O   0  0  0  0  0  0  0  0  0  0  0  0
   51.0088  -31.1310 -103.0066 C   0  0  1  0  0  0  0  0  0  0  0  0
   51.2767  -30.1361 -102.0199 O   0  0  0  0  0  0  0  0  0  0  0  0
   51.7637  -32.3841 -102.6872 C   0  0  1  0  0  0  0  0  0  0  0  0
   51.9559  -32.5049 -101.2625 O   0  0  0  0  0  0  0  0  0  0  0  0
   50.8825  -33.5610 -103.2035 C   0  0  2  0  0  0  0  0  0  0  0  0
   43.4786  -26.3449 -105.1491 O   0  0  0  0  0  0  0  0  0  0  0  0
   50.6039  -33.1245 -108.4884 N   0  0  0  0  0  0  0  0  0  0  0  0
   50.0781  -32.2881 -107.5600 C   0  0  0  0  0  0  0  0  0  0  0  0
   50.2579  -32.4916 -106.2382 N   0  0  0  0  0  0  0  0  0  0  0  0
   50.8945  -33.5877 -105.7945 C   0  0  0  0  0  0  0  0  0  0  0  0
   51.4350  -34.5268 -106.7476 C   0  0  0  0  0  0  0  0  0  0  0  0
   51.2702  -34.2443 -108.1362 C   0  0  0  0  0  0  0  0  0  0  0  0
   51.7707  -35.0946 -109.1012 N   0  0  0  0  0  0  0  0  0  0  0  0
   52.0057  -35.5171 -106.0516 N   0  0  0  0  0  0  0  0  0  0  0  0
   51.8592  -35.2797 -104.7821 C   0  0  0  0  0  0  0  0  0  0  0  0
   51.1879  -34.0998 -104.5609 N   0  0  0  0  0  0  0  0  0  0  0  0
  2  1  1  6  0  0  0
  2  3  1  0  0  0  0
  2  5  1  0  0  0  0
  3  4  1  0  0  0  0
  3 17  1  0  0  0  0
  5  6  1  0  0  0  0
  7  6  1  6  0  0  0
  7  8  1  0  0  0  0
  7  9  1  0  0  0  0
 10  9  1  6  0  0  0
 10 11  1  0  0  0  0
 10 12  1  0  0  0  0
 11 16  1  0  0  0  0
 12 13  1  1  0  0  0
 12 14  1  0  0  0  0
 14 15  1  1  0  0  0
 14 16  1  0  0  0  0
 16 27  1  6  0  0  0
 18 19  2  0  0  0  0
 18 23  1  0  0  0  0
 19 20  1  0  0  0  0
 20 21  2  0  0  0  0
 21 22  1  0  0  0  0
 21 27  1  0  0  0  0
 22 23  2  0  0  0  0
 22 25  1  0  0  0  0
 23 24  1  0  0  0  0
 25 26  2  0  0  0  0
 26 27  1  0  0  0  0
M  END
>  <CHROM.1>
-33.17810081,-67.74850469,173.58217723,-83.31869517,-161.47418823,160.79803577
36.64568901,49.27485426,-30.94853318,-104.89288058,2.79491974,-0.84557095
1.16397325

>  <Name>
ligand

>  <RI>
0

>  <Rbt.Current_Directory>
/home/itssahil/PROJECTS/Mol_Feturizer/New_Systems/rnas/4L81

>  <Rbt.Executable>
rbdock ($Id: //depot/dev/client3/rdock/2013.1/src/exe/rbdock.cxx#4 $)

>  <Rbt.Library>
libRbt.so (2013.1, Build901 2013/11/27)

>  <Rbt.Parameter_File>
/export/apps/rDock/src/rDock_2013.1_src/data/scripts/dock_solv.prm

>  <Rbt.Receptor>
prm/pocket_docking_8.prm

>  <SCORE>
-11.419

>  <SCORE.INTER>
-9.25007

>  <SCORE.INTER.CONST>
1

>  <SCORE.INTER.POLAR>
0

>  <SCORE.INTER.ROT>
7

>  <SCORE.INTER.SOLV>
9.94888

>  <SCORE.INTER.VDW>
-17.7497

>  <SCORE.INTER.norm>
-0.342595

>  <SCORE.INTRA>
-2.16892

>  <SCORE.INTRA.DIHEDRAL>
-1.22567

>  <SCORE.INTRA.DIHEDRAL.0>
8.34559

>  <SCORE.INTRA.POLAR>
0

>  <SCORE.INTRA.POLAR.0>
0

>  <SCORE.INTRA.REPUL>
0

>  <SCORE.INTRA.REPUL.0>
0

>  <SCORE.INTRA.SOLV>
-0.348082

>  <SCORE.INTRA.SOLV.lig_0>
-48.829

>  <SCORE.INTRA.VDW>
-1.38204

>  <SCORE.INTRA.VDW.0>
-1.77092

>  <SCORE.INTRA.norm>
-0.0803304

>  <SCORE.RESTR>
0

>  <SCORE.RESTR.CAVITY>
0

>  <SCORE.RESTR.norm>
0

>  <SCORE.SYSTEM>
0

>  <SCORE.SYSTEM.CONST>
0

>  <SCORE.SYSTEM.DIHEDRAL>
0

>  <SCORE.SYSTEM.SOLV>
0

>  <SCORE.SYSTEM.norm>
0

>  <SCORE.heavy>
27

>  <SCORE.norm>
-0.422926

>  <RMSD>
5.692

$$$$
ligand
 OpenBabel11021811503D
libRbt.so/2013.1/901 2013/11/27
 27 29  0  0  0  0  0  0  0  0999 V2000
   47.1115  -21.2246 -106.2626 N   0  0  0  0  0  0  0  0  0  0  0  0
   47.1054  -21.5277 -107.6981 C   0  0  2  0  0  0  0  0  0  0  0  0
   45.6783  -21.7107 -108.1698 C   0  0  0  0  0  0  0  0  0  0  0  0
   45.3765  -21.4596 -109.3268 O   0  0  0  0  0  0  0  0  0  0  0  0
   47.8962  -22.8073 -108.0026 C   0  0  0  0  0  0  0  0  0  0  0  0
   47.3310  -23.9900 -107.2289 C   0  0  0  0  0  0  0  0  0  0  0  0
   48.2626  -25.5463 -107.4999 S   0  0  2  0  0  0  0  0  0  0  0  0
   47.2502  -26.8141 -106.6710 C   0  0  0  0  0  0  0  0  0  0  0  0
   49.4686  -25.2586 -106.2070 C   0  0  0  0  0  0  0  0  0  0  0  0
   48.8716  -24.7377 -104.9267 C   0  0  1  0  0  0  0  0  0  0  0  0
   48.3768  -25.8627 -104.1808 O   0  0  0  0  0  0  0  0  0  0  0  0
   50.0531  -24.2378 -104.1975 C   0  0  1  0  0  0  0  0  0  0  0  0
   50.1713  -22.8285 -104.3854 O   0  0  0  0  0  0  0  0  0  0  0  0
   49.7030  -24.5359 -102.7724 C   0  0  1  0  0  0  0  0  0  0  0  0
   48.9458  -23.4476 -102.2035 O   0  0  0  0  0  0  0  0  0  0  0  0
   48.8309  -25.8268 -102.8043 C   0  0  2  0  0  0  0  0  0  0  0  0
   44.8279  -22.1403 -107.4101 O   0  0  0  0  0  0  0  0  0  0  0  0
   49.0528  -30.5520 -100.3916 N   0  0  0  0  0  0  0  0  0  0  0  0
   48.1206  -29.5816 -100.2267 C   0  0  0  0  0  0  0  0  0  0  0  0
   48.1563  -28.4349 -100.9373 N   0  0  0  0  0  0  0  0  0  0  0  0
   49.1752  -28.1792 -101.7739 C   0  0  0  0  0  0  0  0  0  0  0  0
   50.2121  -29.1675 -101.9494 C   0  0  0  0  0  0  0  0  0  0  0  0
   50.1059  -30.3891 -101.2201 C   0  0  0  0  0  0  0  0  0  0  0  0
   51.0569  -31.3809 -101.3480 N   0  0  0  0  0  0  0  0  0  0  0  0
   51.0966  -28.6670 -102.8200 N   0  0  0  0  0  0  0  0  0  0  0  0
   50.7084  -27.4801 -103.1807 C   0  0  0  0  0  0  0  0  0  0  0  0
   49.5254  -27.1273 -102.5744 N   0  0  0  0  0  0  0  0  0  0  0  0
  2  1  1  1  0  0  0
  2  3  1  0  0  0  0
  2  5  1  0  0  0  0
  3  4  1  0  0  0  0
  3 17  1  0  0  0  0
  5  6  1  0  0  0  0
  7  6  1  1  0  0  0
  7  8  1  0  0  0  0
  7  9  1  0  0  0  0
 10  9  1  6  0  0  0
 10 11  1  0  0  0  0
 10 12  1  0  0  0  0
 11 16  1  0  0  0  0
 12 13  1  1  0  0  0
 12 14  1  0  0  0  0
 14 15  1  6  0  0  0
 14 16  1  0  0  0  0
 16 27  1  6  0  0  0
 18 19  2  0  0  0  0
 18 23  1  0  0  0  0
 19 20  1  0  0  0  0
 20 21  2  0  0  0  0
 21 22  1  0  0  0  0
 21 27  1  0  0  0  0
 22 23  2  0  0  0  0
 22 25  1  0  0  0  0
 23 24  1  0  0  0  0
 25 26  2  0  0  0  0
 26 27  1  0  0  0  0
M  END
>  <CHROM.1>
151.69078496,57.72481177,-178.07100781,-172.13075633,43.52546642,82.98809119
-112.52573957,48.54720919,-25.62325928,-104.54016586,-2.36408180,1.12041419
-3.13908806

>  <Name>
ligand

>  <RI>
0

>  <Rbt.Current_Directory>
/home/itssahil/PROJECTS/Mol_Feturizer/New_Systems/rnas/4L81

>  <Rbt.Executable>
rbdock ($Id: //depot/dev/client3/rdock/2013.1/src/exe/rbdock.cxx#4 $)

>  <Rbt.Library>
libRbt.so (2013.1, Build901 2013/11/27)

>  <Rbt.Parameter_File>
/export/apps/rDock/src/rDock_2013.1_src/data/scripts/dock_solv.prm

>  <Rbt.Receptor>
prm/pocket_docking_7.prm

>  <SCORE>
-10.1991

>  <SCORE.INTER>
-10.2244

>  <SCORE.INTER.CONST>
1

>  <SCORE.INTER.POLAR>
0

>  <SCORE.INTER.ROT>
7

>  <SCORE.INTER.SOLV>
10.2418

>  <SCORE.INTER.VDW>
-18.4969

>  <SCORE.INTER.norm>
-0.378683

>  <SCORE.INTRA>
0.0253611

>  <SCORE.INTRA.DIHEDRAL>
-2.40762

>  <SCORE.INTRA.DIHEDRAL.0>
8.34559

>  <SCORE.INTRA.POLAR>
0

>  <SCORE.INTRA.POLAR.0>
0

>  <SCORE.INTRA.REPUL>
0

>  <SCORE.INTRA.REPUL.0>
0

>  <SCORE.INTRA.SOLV>
0.23718

>  <SCORE.INTRA.SOLV.lig_0>
-48.829

>  <SCORE.INTRA.VDW>
1.11058

>  <SCORE.INTRA.VDW.0>
-1.77092

>  <SCORE.INTRA.norm>
0.000939299

>  <SCORE.RESTR>
0

>  <SCORE.RESTR.CAVITY>
0

>  <SCORE.RESTR.norm>
0

>  <SCORE.SYSTEM>
0

>  <SCORE.SYSTEM.CONST>
0

>  <SCORE.SYSTEM.DIHEDRAL>
0

>  <SCORE.SYSTEM.SOLV>
0

>  <SCORE.SYSTEM.norm>
0

>  <SCORE.heavy>
27

>  <SCORE.norm>
-0.377744

>  <RMSD>
5.710

$$$$
ligand
 OpenBabel11021811503D
libRbt.so/2013.1/901 2013/11/27
 27 29  0  0  0  0  0  0  0  0999 V2000
   47.2172  -27.4736 -104.3631 N   0  0  0  0  0  0  0  0  0  0  0  0
   45.7896  -27.7903 -104.4829 C   0  0  2  0  0  0  0  0  0  0  0  0
   44.9686  -26.6052 -104.0201 C   0  0  0  0  0  0  0  0  0  0  0  0
   43.7623  -26.5805 -104.2126 O   0  0  0  0  0  0  0  0  0  0  0  0
   45.4154  -29.0140 -103.6356 C   0  0  0  0  0  0  0  0  0  0  0  0
   45.6991  -28.7593 -102.1620 C   0  0  0  0  0  0  0  0  0  0  0  0
   45.7348  -30.2913 -101.1546 S   0  0  2  0  0  0  0  0  0  0  0  0
   46.2234  -29.7153  -99.4965 C   0  0  0  0  0  0  0  0  0  0  0  0
   47.3322  -30.8517 -101.7405 C   0  0  0  0  0  0  0  0  0  0  0  0
   47.3598  -31.1718 -103.2114 C   0  0  1  0  0  0  0  0  0  0  0  0
   48.7351  -31.2155 -103.6277 O   0  0  0  0  0  0  0  0  0  0  0  0
   46.8654  -32.5617 -103.2504 C   0  0  1  0  0  0  0  0  0  0  0  0
   45.4734  -32.5665 -103.5629 O   0  0  0  0  0  0  0  0  0  0  0  0
   47.6460  -33.1504 -104.3845 C   0  0  1  0  0  0  0  0  0  0  0  0
   46.9654  -32.9194 -105.6355 O   0  0  0  0  0  0  0  0  0  0  0  0
   49.0208  -32.4170 -104.3874 C   0  0  2  0  0  0  0  0  0  0  0  0
   45.4977  -25.6836 -103.4237 O   0  0  0  0  0  0  0  0  0  0  0  0
   52.2298  -32.7698 -100.1712 N   0  0  0  0  0  0  0  0  0  0  0  0
   51.2508  -31.8583 -100.3922 C   0  0  0  0  0  0  0  0  0  0  0  0
   50.4732  -31.9048 -101.4940 N   0  0  0  0  0  0  0  0  0  0  0  0
   50.7046  -32.8111 -102.4577 C   0  0  0  0  0  0  0  0  0  0  0  0
   51.7639  -33.7754 -102.2829 C   0  0  0  0  0  0  0  0  0  0  0  0
   52.5258  -33.7250 -101.0778 C   0  0  0  0  0  0  0  0  0  0  0  0
   53.5467  -34.6231 -100.8415 N   0  0  0  0  0  0  0  0  0  0  0  0
   51.7844  -34.5475 -103.3758 N   0  0  0  0  0  0  0  0  0  0  0  0
   50.8572  -34.1461 -104.1935 C   0  0  0  0  0  0  0  0  0  0  0  0
   50.1527  -33.0828 -103.6790 N   0  0  0  0  0  0  0  0  0  0  0  0
  2  1  1  1  0  0  0
  2  3  1  0  0  0  0
  2  5  1  0  0  0  0
  3  4  1  0  0  0  0
  3 17  1  0  0  0  0
  5  6  1  0  0  0  0
  7  6  1  6  0  0  0
  7  8  1  0  0  0  0
  7  9  1  0  0  0  0
 10  9  1  1  0  0  0
 10 11  1  0  0  0  0
 10 12  1  0  0  0  0
 11 16  1  0  0  0  0
 12 13  1  6  0  0  0
 12 14  1  0  0  0  0
 14 15  1  6  0  0  0
 14 16  1  0  0  0  0
 16 27  1  1  0  0  0
 18 19  2  0  0  0  0
 18 23  1  0  0  0  0
 19 20  1  0  0  0  0
 20 21  2  0  0  0  0
 21 22  1  0  0  0  0
 21 27  1  0  0  0  0
 22 23  2  0  0  0  0
 22 25  1  0  0  0  0
 23 24  1  0  0  0  0
 25 26  2  0  0  0  0
 26 27  1  0  0  0  0
M  END
>  <CHROM.1>
169.58004035,60.69747048,-163.71336973,175.46549063,-64.05744921,163.13456982
10.31172178,48.10065577,-31.07192685,-102.78591723,-2.84467869,0.69557414
-2.23504453

>  <Name>
ligand

>  <RI>
0

>  <Rbt.Current_Directory>
/home/itssahil/PROJECTS/Mol_Feturizer/New_Systems/rnas/4L81

>  <Rbt.Executable>
rbdock ($Id: //depot/dev/client3/rdock/2013.1/src/exe/rbdock.cxx#4 $)

>  <Rbt.Library>
libRbt.so (2013.1, Build901 2013/11/27)

>  <Rbt.Parameter_File>
/export/apps/rDock/src/rDock_2013.1_src/data/scripts/dock_solv.prm

>  <Rbt.Receptor>
prm/pocket_docking_7.prm

>  <SCORE>
-19.4015

>  <SCORE.INTER>
-18.4891

>  <SCORE.INTER.CONST>
1

>  <SCORE.INTER.POLAR>
0

>  <SCORE.INTER.ROT>
7

>  <SCORE.INTER.SOLV>
12.8042

>  <SCORE.INTER.VDW>
-24.8608

>  <SCORE.INTER.norm>
-0.684782

>  <SCORE.INTRA>
-1.13809

>  <SCORE.INTRA.DIHEDRAL>
-3.19276

>  <SCORE.INTRA.DIHEDRAL.0>
8.34559

>  <SCORE.INTRA.POLAR>
0

>  <SCORE.INTRA.POLAR.0>
0

>  <SCORE.INTRA.REPUL>
0

>  <SCORE.INTRA.REPUL.0>
0

>  <SCORE.INTRA.SOLV>
0.845714

>  <SCORE.INTRA.SOLV.lig_0>
-48.829

>  <SCORE.INTRA.VDW>
0.0354323

>  <SCORE.INTRA.VDW.0>
-1.77092

>  <SCORE.INTRA.norm>
-0.0421515

>  <SCORE.RESTR>
0.225663

>  <SCORE.RESTR.CAVITY>
0.225663

>  <SCORE.RESTR.norm>
0.00835789

>  <SCORE.SYSTEM>
0

>  <SCORE.SYSTEM.CONST>
0

>  <SCORE.SYSTEM.DIHEDRAL>
0

>  <SCORE.SYSTEM.SOLV>
0

>  <SCORE.SYSTEM.norm>
0

>  <SCORE.heavy>
27

>  <SCORE.norm>
-0.718576

>  <RMSD>
5.719

$$$$
ligand
 OpenBabel11021811503D
libRbt.so/2013.1/901 2013/11/27
 27 29  0  0  0  0  0  0  0  0999 V2000
   45.2401  -32.5474 -102.9827 N   0  0  0  0  0  0  0  0  0  0  0  0
   44.7234  -31.2455 -102.5456 C   0  0  2  0  0  0  0  0  0  0  0  0
   43.2271  -31.3409 -102.3341 C   0  0  0  0  0  0  0  0  0  0  0  0
   42.5965  -30.3651 -101.9564 O   0  0  0  0  0  0  0  0  0  0  0  0
   45.0087  -30.1533 -103.5854 C   0  0  0  0  0  0  0  0  0  0  0  0
   46.4974  -29.8426 -103.6495 C   0  0  0  0  0  0  0  0  0  0  0  0
   47.1097  -28.9200 -102.1876 S   0  0  2  0  0  0  0  0  0  0  0  0
   47.1289  -27.1840 -102.7404 C   0  0  0  0  0  0  0  0  0  0  0  0
   48.8385  -29.3153 -102.4397 C   0  0  0  0  0  0  0  0  0  0  0  0
   49.2595  -30.6185 -101.8141 C   0  0  1  0  0  0  0  0  0  0  0  0
   48.8127  -31.6836 -102.6702 O   0  0  0  0  0  0  0  0  0  0  0  0
   50.7299  -30.5749 -101.9313 C   0  0  1  0  0  0  0  0  0  0  0  0
   51.2955  -30.1260 -100.7009 O   0  0  0  0  0  0  0  0  0  0  0  0
   51.0784  -32.0131 -102.1596 C   0  0  1  0  0  0  0  0  0  0  0  0
   51.2428  -32.6958 -100.8993 O   0  0  0  0  0  0  0  0  0  0  0  0
   49.8789  -32.6280 -102.9413 C   0  0  2  0  0  0  0  0  0  0  0  0
   42.6359  -32.3800 -102.5702 O   0  0  0  0  0  0  0  0  0  0  0  0
   51.7354  -35.0147 -107.3065 N   0  0  0  0  0  0  0  0  0  0  0  0
   51.9630  -35.3585 -106.0150 C   0  0  0  0  0  0  0  0  0  0  0  0
   51.3931  -34.6891 -104.9912 N   0  0  0  0  0  0  0  0  0  0  0  0
   50.6460  -33.5966 -105.2189 C   0  0  0  0  0  0  0  0  0  0  0  0
   50.4112  -33.1701 -106.5774 C   0  0  0  0  0  0  0  0  0  0  0  0
   50.9874  -33.9392 -107.6318 C   0  0  0  0  0  0  0  0  0  0  0  0
   50.7950  -33.5935 -108.9540 N   0  0  0  0  0  0  0  0  0  0  0  0
   49.6518  -32.0695 -106.5241 N   0  0  0  0  0  0  0  0  0  0  0  0
   49.4115  -31.7825 -105.2794 C   0  0  0  0  0  0  0  0  0  0  0  0
   49.9923  -32.6929 -104.4276 N   0  0  0  0  0  0  0  0  0  0  0  0
  2  1  1  6  0  0  0
  2  3  1  0  0  0  0
  2  5  1  0  0  0  0
  3  4  1  0  0  0  0
  3 17  1  0  0  0  0
  5  6  1  0  0  0  0
  7  6  1  6  0  0  0
  7  8  1  0  0  0  0
  7  9  1  0  0  0  0
 10  9  1  6  0  0  0
 10 11  1  0  0  0  0
 10 12  1  0  0  0  0
 11 16  1  0  0  0  0
 12 13  1  1  0  0  0
 12 14  1  0  0  0  0
 14 15  1  1  0  0  0
 14 16  1  0  0  0  0
 16 27  1  6  0  0  0
 18 19  2  0  0  0  0
 18 23  1  0  0  0  0
 19 20  1  0  0  0  0
 20 21  2  0  0  0  0
 21 22  1  0  0  0  0
 21 27  1  0  0  0  0
 22 23  2  0  0  0  0
 22 25  1  0  0  0  0
 23 24  1  0  0  0  0
 25 26  2  0  0  0  0
 26 27  1  0  0  0  0
M  END
>  <CHROM.1>
179.40623032,-69.46500188,-72.32224319,-97.88300909,-86.80862384,78.33921929
-166.01344764,48.46486135,-31.64113849,-103.65284692,2.46682300,-0.08865896
0.90596916

>  <Name>
ligand

>  <RI>
0

>  <Rbt.Current_Directory>
/home/itssahil/PROJECTS/Mol_Feturizer/New_Systems/rnas/4L81

>  <Rbt.Executable>
rbdock ($Id: //depot/dev/client3/rdock/2013.1/src/exe/rbdock.cxx#4 $)

>  <Rbt.Library>
libRbt.so (2013.1, Build901 2013/11/27)

>  <Rbt.Parameter_File>
/export/apps/rDock/src/rDock_2013.1_src/data/scripts/dock_solv.prm

>  <Rbt.Receptor>
prm/pocket_docking_8.prm

>  <SCORE>
-10.5414

>  <SCORE.INTER>
-9.51432

>  <SCORE.INTER.CONST>
1

>  <SCORE.INTER.POLAR>
0

>  <SCORE.INTER.ROT>
7

>  <SCORE.INTER.SOLV>
14.5379

>  <SCORE.INTER.VDW>
-19.4555

>  <SCORE.INTER.norm>
-0.352382

>  <SCORE.INTRA>
-1.02711

>  <SCORE.INTRA.DIHEDRAL>
-0.11079

>  <SCORE.INTRA.DIHEDRAL.0>
8.34559

>  <SCORE.INTRA.POLAR>
0

>  <SCORE.INTRA.POLAR.0>
0

>  <SCORE.INTRA.REPUL>
0

>  <SCORE.INTRA.REPUL.0>
0

>  <SCORE.INTRA.SOLV>
0.208925

>  <SCORE.INTRA.SOLV.lig_0>
-48.829

>  <SCORE.INTRA.VDW>
-1.07618

>  <SCORE.INTRA.VDW.0>
-1.77092

>  <SCORE.INTRA.norm>
-0.0380411

>  <SCORE.RESTR>
0

>  <SCORE.RESTR.CAVITY>
0

>  <SCORE.RESTR.norm>
0

>  <SCORE.SYSTEM>
0

>  <SCORE.SYSTEM.CONST>
0

>  <SCORE.SYSTEM.DIHEDRAL>
0

>  <SCORE.SYSTEM.SOLV>
0

>  <SCORE.SYSTEM.norm>
0

>  <SCORE.heavy>
27

>  <SCORE.norm>
-0.390424

>  <RMSD>
5.723

$$$$
ligand
 OpenBabel11021811503D
libRbt.so/2013.1/901 2013/11/27
 27 29  0  0  0  0  0  0  0  0999 V2000
   45.3899  -26.5289 -104.8370 N   0  0  0  0  0  0  0  0  0  0  0  0
   45.8743  -26.7100 -103.4639 C   0  0  2  0  0  0  0  0  0  0  0  0
   47.3538  -26.3934 -103.4042 C   0  0  0  0  0  0  0  0  0  0  0  0
   47.8044  -25.7347 -102.4790 O   0  0  0  0  0  0  0  0  0  0  0  0
   45.6553  -28.1496 -102.9793 C   0  0  0  0  0  0  0  0  0  0  0  0
   46.0878  -28.3040 -101.5281 C   0  0  0  0  0  0  0  0  0  0  0  0
   45.9258  -30.0198 -100.9012 S   0  0  2  0  0  0  0  0  0  0  0  0
   46.3869  -29.8904  -99.1433 C   0  0  0  0  0  0  0  0  0  0  0  0
   47.4877  -30.5979 -101.5606 C   0  0  0  0  0  0  0  0  0  0  0  0
   47.4528  -30.8837 -103.0384 C   0  0  1  0  0  0  0  0  0  0  0  0
   48.8103  -30.9945 -103.4986 O   0  0  0  0  0  0  0  0  0  0  0  0
   46.8793  -32.2423 -103.0929 C   0  0  1  0  0  0  0  0  0  0  0  0
   45.4805  -32.1615 -103.3616 O   0  0  0  0  0  0  0  0  0  0  0  0
   47.5907  -32.8465 -104.2638 C   0  0  1  0  0  0  0  0  0  0  0  0
   46.8871  -32.5477 -105.4873 O   0  0  0  0  0  0  0  0  0  0  0  0
   49.0043  -32.1915 -104.2934 C   0  0  2  0  0  0  0  0  0  0  0  0
   48.1108  -26.8198 -104.2586 O   0  0  0  0  0  0  0  0  0  0  0  0
   52.2306  -32.9018 -100.1360 N   0  0  0  0  0  0  0  0  0  0  0  0
   51.2828  -31.9454 -100.2941 C   0  0  0  0  0  0  0  0  0  0  0  0
   50.4957  -31.9003 -101.3893 N   0  0  0  0  0  0  0  0  0  0  0  0
   50.6877  -32.7562 -102.4062 C   0  0  0  0  0  0  0  0  0  0  0  0
   51.7136  -33.7653 -102.2981 C   0  0  0  0  0  0  0  0  0  0  0  0
   52.4859  -33.8121 -101.0995 C   0  0  0  0  0  0  0  0  0  0  0  0
   53.4763  -34.7574 -100.9257 N   0  0  0  0  0  0  0  0  0  0  0  0
   51.6985  -34.4724 -103.4341 N   0  0  0  0  0  0  0  0  0  0  0  0
   50.7799  -33.9919 -104.2182 C   0  0  0  0  0  0  0  0  0  0  0  0
   50.1173  -32.9366 -103.6359 N   0  0  0  0  0  0  0  0  0  0  0  0
  2  1  1  6  0  0  0
  2  3  1  0  0  0  0
  2  5  1  0  0  0  0
  3  4  1  0  0  0  0
  3 17  1  0  0  0  0
  5  6  1  0  0  0  0
  7  6  1  6  0  0  0
  7  8  1  0  0  0  0
  7  9  1  0  0  0  0
 10  9  1  1  0  0  0
 10 11  1  0  0  0  0
 10 12  1  0  0  0  0
 11 16  1  0  0  0  0
 12 13  1  6  0  0  0
 12 14  1  0  0  0  0
 14 15  1  6  0  0  0
 14 16  1  0  0  0  0
 16 27  1  1  0  0  0
 18 19  2  0  0  0  0
 18 23  1  0  0  0  0
 19 20  1  0  0  0  0
 20 21  2  0  0  0  0
 21 22  1  0  0  0  0
 21 27  1  0  0  0  0
 22 23  2  0  0  0  0
 22 25  1  0  0  0  0
 23 24  1  0  0  0  0
 25 26  2  0  0  0  0
 26 27  1  0  0  0  0
M  END
>  <CHROM.1>
137.01351375,-176.73492692,-177.39847254,-176.07276408,-77.59342920,165.24812789
12.99357943,48.42482431,-30.85655337,-102.58395239,2.62362205,-0.70800655
0.71042228

>  <Name>
ligand

>  <RI>
0

>  <Rbt.Current_Directory>
/home/itssahil/PROJECTS/Mol_Feturizer/New_Systems/rnas/4L81

>  <Rbt.Executable>
rbdock ($Id: //depot/dev/client3/rdock/2013.1/src/exe/rbdock.cxx#4 $)

>  <Rbt.Library>
libRbt.so (2013.1, Build901 2013/11/27)

>  <Rbt.Parameter_File>
/export/apps/rDock/src/rDock_2013.1_src/data/scripts/dock_solv.prm

>  <Rbt.Receptor>
prm/pocket_docking_8.prm

>  <SCORE>
-21.0011

>  <SCORE.INTER>
-17.3522

>  <SCORE.INTER.CONST>
1

>  <SCORE.INTER.POLAR>
0

>  <SCORE.INTER.ROT>
7

>  <SCORE.INTER.SOLV>
13.3837

>  <SCORE.INTER.VDW>
-24.296

>  <SCORE.INTER.norm>
-0.642675

>  <SCORE.INTRA>
-3.64887

>  <SCORE.INTRA.DIHEDRAL>
-3.57767

>  <SCORE.INTRA.DIHEDRAL.0>
8.34559

>  <SCORE.INTRA.POLAR>
0

>  <SCORE.INTRA.POLAR.0>
0

>  <SCORE.INTRA.REPUL>
0

>  <SCORE.INTRA.REPUL.0>
0

>  <SCORE.INTRA.SOLV>
-1.00227

>  <SCORE.INTRA.SOLV.lig_0>
-48.829

>  <SCORE.INTRA.VDW>
-1.3589

>  <SCORE.INTRA.VDW.0>
-1.77092

>  <SCORE.INTRA.norm>
-0.135143

>  <SCORE.RESTR>
0

>  <SCORE.RESTR.CAVITY>
0

>  <SCORE.RESTR.norm>
0

>  <SCORE.SYSTEM>
0

>  <SCORE.SYSTEM.CONST>
0

>  <SCORE.SYSTEM.DIHEDRAL>
0

>  <SCORE.SYSTEM.SOLV>
0

>  <SCORE.SYSTEM.norm>
0

>  <SCORE.heavy>
27

>  <SCORE.norm>
-0.777818

>  <RMSD>
5.774

$$$$
ligand
 OpenBabel11021811503D
libRbt.so/2013.1/901 2013/11/27
 27 29  0  0  0  0  0  0  0  0999 V2000
   47.4748  -28.5121 -101.4483 N   0  0  0  0  0  0  0  0  0  0  0  0
   46.4881  -28.8905 -100.4305 C   0  0  2  0  0  0  0  0  0  0  0  0
   47.0839  -29.9385  -99.5143 C   0  0  0  0  0  0  0  0  0  0  0  0
   46.5344  -30.2161  -98.4589 O   0  0  0  0  0  0  0  0  0  0  0  0
   45.2141  -29.4581 -101.0708 C   0  0  0  0  0  0  0  0  0  0  0  0
   45.5058  -30.7696 -101.7861 C   0  0  0  0  0  0  0  0  0  0  0  0
   46.5539  -30.5654 -103.2771 S   0  0  2  0  0  0  0  0  0  0  0  0
   45.4493  -29.7634 -104.4838 C   0  0  0  0  0  0  0  0  0  0  0  0
   46.3991  -32.2602 -103.8361 C   0  0  0  0  0  0  0  0  0  0  0  0
   47.3358  -32.6154 -104.9601 C   0  0  1  0  0  0  0  0  0  0  0  0
   47.2784  -31.5584 -105.9330 O   0  0  0  0  0  0  0  0  0  0  0  0
   48.6618  -32.5237 -104.3189 C   0  0  1  0  0  0  0  0  0  0  0  0
   49.0939  -33.8247 -103.9239 O   0  0  0  0  0  0  0  0  0  0  0  0
   49.5242  -32.0146 -105.4321 C   0  0  1  0  0  0  0  0  0  0  0  0
   50.0290  -33.1136 -106.2187 O   0  0  0  0  0  0  0  0  0  0  0  0
   48.6056  -31.1135 -106.3108 C   0  0  2  0  0  0  0  0  0  0  0  0
   48.0959  -30.5360  -99.8365 O   0  0  0  0  0  0  0  0  0  0  0  0
   50.2012  -27.0102 -103.3418 N   0  0  0  0  0  0  0  0  0  0  0  0
   50.4401  -28.3277 -103.1296 C   0  0  0  0  0  0  0  0  0  0  0  0
   50.0104  -29.2747 -103.9896 N   0  0  0  0  0  0  0  0  0  0  0  0
   49.2496  -28.9456 -105.0462 C   0  0  0  0  0  0  0  0  0  0  0  0
   48.9358  -27.5579 -105.2877 C   0  0  0  0  0  0  0  0  0  0  0  0
   49.4569  -26.5844 -104.3843 C   0  0  0  0  0  0  0  0  0  0  0  0
   49.2039  -25.2393 -104.5616 N   0  0  0  0  0  0  0  0  0  0  0  0
   48.1711  -27.5072 -106.3847 N   0  0  0  0  0  0  0  0  0  0  0  0
   47.9833  -28.7159 -106.8245 C   0  0  0  0  0  0  0  0  0  0  0  0
   48.6304  -29.6456 -106.0444 N   0  0  0  0  0  0  0  0  0  0  0  0
  2  1  1  6  0  0  0
  2  3  1  0  0  0  0
  2  5  1  0  0  0  0
  3  4  1  0  0  0  0
  3 17  1  0  0  0  0
  5  6  1  0  0  0  0
  7  6  1  1  0  0  0
  7  8  1  0  0  0  0
  7  9  1  0  0  0  0
 10  9  1  1  0  0  0
 10 11  1  0  0  0  0
 10 12  1  0  0  0  0
 11 16  1  0  0  0  0
 12 13  1  6  0  0  0
 12 14  1  0  0  0  0
 14 15  1  6  0  0  0
 14 16  1  0  0  0  0
 16 27  1  1  0  0  0
 18 19  2  0  0  0  0
 18 23  1  0  0  0  0
 19 20  1  0  0  0  0
 20 21  2  0  0  0  0
 21 22  1  0  0  0  0
 21 27  1  0  0  0  0
 22 23  2  0  0  0  0
 22 25  1  0  0  0  0
 23 24  1  0  0  0  0
 25 26  2  0  0  0  0
 26 27  1  0  0  0  0
M  END
>  <CHROM.1>
166.55366014,65.41494468,-68.32097326,-71.71646711,-169.73610111,-46.07033406
106.33911868,47.96122032,-29.97931414,-103.65556361,-2.67210013,-1.10934914
-2.65023770

>  <Name>
ligand

>  <RI>
0

>  <Rbt.Current_Directory>
/home/itssahil/PROJECTS/Mol_Feturizer/New_Systems/rnas/4L81

>  <Rbt.Executable>
rbdock ($Id: //depot/dev/client3/rdock/2013.1/src/exe/rbdock.cxx#4 $)

>  <Rbt.Library>
libRbt.so (2013.1, Build901 2013/11/27)

>  <Rbt.Parameter_File>
/export/apps/rDock/src/rDock_2013.1_src/data/scripts/dock_solv.prm

>  <Rbt.Receptor>
prm/pocket_docking_7.prm

>  <SCORE>
-13.0992

>  <SCORE.INTER>
-11.0958

>  <SCORE.INTER.CONST>
1

>  <SCORE.INTER.POLAR>
0

>  <SCORE.INTER.ROT>
7

>  <SCORE.INTER.SOLV>
6.81104

>  <SCORE.INTER.VDW>
-17.9342

>  <SCORE.INTER.norm>
-0.410955

>  <SCORE.INTRA>
-2.00341

>  <SCORE.INTRA.DIHEDRAL>
-3.19199

>  <SCORE.INTRA.DIHEDRAL.0>
8.34559

>  <SCORE.INTRA.POLAR>
0

>  <SCORE.INTRA.POLAR.0>
0

>  <SCORE.INTRA.REPUL>
0

>  <SCORE.INTRA.REPUL.0>
0

>  <SCORE.INTRA.SOLV>
2.34508

>  <SCORE.INTRA.SOLV.lig_0>
-48.829

>  <SCORE.INTRA.VDW>
-1.57995

>  <SCORE.INTRA.VDW.0>
-1.77092

>  <SCORE.INTRA.norm>
-0.0742004

>  <SCORE.RESTR>
0

>  <SCORE.RESTR.CAVITY>
0

>  <SCORE.RESTR.norm>
0

>  <SCORE.SYSTEM>
0

>  <SCORE.SYSTEM.CONST>
0

>  <SCORE.SYSTEM.DIHEDRAL>
0

>  <SCORE.SYSTEM.SOLV>
0

>  <SCORE.SYSTEM.norm>
0

>  <SCORE.heavy>
27

>  <SCORE.norm>
-0.485155

>  <RMSD>
5.801

$$$$
ligand
 OpenBabel11021811503D
libRbt.so/2013.1/901 2013/11/27
 27 29  0  0  0  0  0  0  0  0999 V2000
   48.7374  -33.3173 -105.0092 N   0  0  0  0  0  0  0  0  0  0  0  0
   48.8274  -31.8601 -105.1546 C   0  0  2  0  0  0  0  0  0  0  0  0
   48.9704  -31.5064 -106.6199 C   0  0  0  0  0  0  0  0  0  0  0  0
   49.7628  -32.1137 -107.3242 O   0  0  0  0  0  0  0  0  0  0  0  0
   50.0311  -31.2951 -104.3883 C   0  0  0  0  0  0  0  0  0  0  0  0
   49.8481  -31.4705 -102.8874 C   0  0  0  0  0  0  0  0  0  0  0  0
   48.6389  -30.2979 -102.1620 S   0  0  2  0  0  0  0  0  0  0  0  0
   48.8876  -30.4663 -100.3650 C   0  0  0  0  0  0  0  0  0  0  0  0
   47.2164  -31.3701 -102.3516 C   0  0  0  0  0  0  0  0  0  0  0  0
   45.9774  -30.8599 -101.6650 C   0  0  1  0  0  0  0  0  0  0  0  0
   46.2016  -29.4834 -101.3155 O   0  0  0  0  0  0  0  0  0  0  0  0
   44.9804  -30.8593 -102.7529 C   0  0  1  0  0  0  0  0  0  0  0  0
   44.1910  -32.0455 -102.6800 O   0  0  0  0  0  0  0  0  0  0  0  0
   44.1404  -29.6651 -102.4205 C   0  0  1  0  0  0  0  0  0  0  0  0
   43.0830  -30.0328 -101.5106 O   0  0  0  0  0  0  0  0  0  0  0  0
   45.0966  -28.6436 -101.7347 C   0  0  2  0  0  0  0  0  0  0  0  0
   48.2742  -30.6376 -107.1155 O   0  0  0  0  0  0  0  0  0  0  0  0
   44.7074  -25.2780 -105.8236 N   0  0  0  0  0  0  0  0  0  0  0  0
   43.7840  -26.1755 -105.3996 C   0  0  0  0  0  0  0  0  0  0  0  0
   43.9918  -26.9484 -104.3131 N   0  0  0  0  0  0  0  0  0  0  0  0
   45.1668  -26.9151 -103.6637 C   0  0  0  0  0  0  0  0  0  0  0  0
   46.1944  -26.0035 -104.1059 C   0  0  0  0  0  0  0  0  0  0  0  0
   45.9120  -25.1650 -105.2251 C   0  0  0  0  0  0  0  0  0  0  0  0
   46.8458  -24.2636 -105.6944 N   0  0  0  0  0  0  0  0  0  0  0  0
   47.2505  -26.1729 -103.3018 N   0  0  0  0  0  0  0  0  0  0  0  0
   46.9726  -27.0947 -102.4286 C   0  0  0  0  0  0  0  0  0  0  0  0
   45.6986  -27.5849 -102.5967 N   0  0  0  0  0  0  0  0  0  0  0  0
  2  1  1  6  0  0  0
  2  3  1  0  0  0  0
  2  5  1  0  0  0  0
  3  4  1  0  0  0  0
  3 17  1  0  0  0  0
  5  6  1  0  0  0  0
  7  6  1  6  0  0  0
  7  8  1  0  0  0  0
  7  9  1  0  0  0  0
 10  9  1  6  0  0  0
 10 11  1  0  0  0  0
 10 12  1  0  0  0  0
 11 16  1  0  0  0  0
 12 13  1  1  0  0  0
 12 14  1  0  0  0  0
 14 15  1  1  0  0  0
 14 16  1  0  0  0  0
 16 27  1  6  0  0  0
 18 19  2  0  0  0  0
 18 23  1  0  0  0  0
 19 20  1  0  0  0  0
 20 21  2  0  0  0  0
 21 22  1  0  0  0  0
 21 27  1  0  0  0  0
 22 23  2  0  0  0  0
 22 25  1  0  0  0  0
 23 24  1  0  0  0  0
 25 26  2  0  0  0  0
 26 27  1  0  0  0  0
M  END
>  <CHROM.1>
-46.12914831,-66.36245165,-74.80540715,-167.86736415,171.01550773,13.80779130
148.86525042,46.75909408,-29.31373145,-103.61659906,-0.66408080,0.76665953
-0.69240182

>  <Name>
ligand

>  <RI>
0

>  <Rbt.Current_Directory>
/home/itssahil/PROJECTS/Mol_Feturizer/New_Systems/rnas/4L81

>  <Rbt.Executable>
rbdock ($Id: //depot/dev/client3/rdock/2013.1/src/exe/rbdock.cxx#4 $)

>  <Rbt.Library>
libRbt.so (2013.1, Build901 2013/11/27)

>  <Rbt.Parameter_File>
/export/apps/rDock/src/rDock_2013.1_src/data/scripts/dock_solv.prm

>  <Rbt.Receptor>
prm/pocket_docking_6.prm

>  <SCORE>
-12.8346

>  <SCORE.INTER>
-13.7696

>  <SCORE.INTER.CONST>
1

>  <SCORE.INTER.POLAR>
0

>  <SCORE.INTER.ROT>
7

>  <SCORE.INTER.SOLV>
10.9139

>  <SCORE.INTER.VDW>
-21.0843

>  <SCORE.INTER.norm>
-0.509984

>  <SCORE.INTRA>
0.934995

>  <SCORE.INTRA.DIHEDRAL>
1.4747

>  <SCORE.INTRA.DIHEDRAL.0>
8.34559

>  <SCORE.INTRA.POLAR>
0

>  <SCORE.INTRA.POLAR.0>
0

>  <SCORE.INTRA.REPUL>
0

>  <SCORE.INTRA.REPUL.0>
0

>  <SCORE.INTRA.SOLV>
0.691237

>  <SCORE.INTRA.SOLV.lig_0>
-48.829

>  <SCORE.INTRA.VDW>
-0.147975

>  <SCORE.INTRA.VDW.0>
-1.77092

>  <SCORE.INTRA.norm>
0.0346294

>  <SCORE.RESTR>
0

>  <SCORE.RESTR.CAVITY>
0

>  <SCORE.RESTR.norm>
0

>  <SCORE.SYSTEM>
0

>  <SCORE.SYSTEM.CONST>
0

>  <SCORE.SYSTEM.DIHEDRAL>
0

>  <SCORE.SYSTEM.SOLV>
0

>  <SCORE.SYSTEM.norm>
0

>  <SCORE.heavy>
27

>  <SCORE.norm>
-0.475355

>  <RMSD>
5.824

$$$$
ligand
 OpenBabel11021811503D
libRbt.so/2013.1/901 2013/11/27
 27 29  0  0  0  0  0  0  0  0999 V2000
   49.1722  -27.3826 -106.4844 N   0  0  0  0  0  0  0  0  0  0  0  0
   48.7843  -28.1592 -107.6672 C   0  0  2  0  0  0  0  0  0  0  0  0
   47.7754  -27.3739 -108.4786 C   0  0  0  0  0  0  0  0  0  0  0  0
   47.6998  -27.5351 -109.6873 O   0  0  0  0  0  0  0  0  0  0  0  0
   48.1629  -29.5059 -107.2726 C   0  0  0  0  0  0  0  0  0  0  0  0
   47.0677  -29.3129 -106.2333 C   0  0  0  0  0  0  0  0  0  0  0  0
   46.1918  -30.8663 -105.8052 S   0  0  2  0  0  0  0  0  0  0  0  0
   45.1418  -31.1930 -107.2579 C   0  0  0  0  0  0  0  0  0  0  0  0
   44.9723  -30.0955 -104.7434 C   0  0  0  0  0  0  0  0  0  0  0  0
   45.3296  -30.1361 -103.2814 C   0  0  1  0  0  0  0  0  0  0  0  0
   46.5706  -29.4305 -103.1107 O   0  0  0  0  0  0  0  0  0  0  0  0
   44.2822  -29.2970 -102.6678 C   0  0  1  0  0  0  0  0  0  0  0  0
   43.2456  -30.1282 -102.1483 O   0  0  0  0  0  0  0  0  0  0  0  0
   45.0169  -28.6336 -101.5443 C   0  0  1  0  0  0  0  0  0  0  0  0
   44.9831  -29.4625 -100.3639 O   0  0  0  0  0  0  0  0  0  0  0  0
   46.4877  -28.4665 -102.0309 C   0  0  2  0  0  0  0  0  0  0  0  0
   47.0099  -26.6009 -107.9296 O   0  0  0  0  0  0  0  0  0  0  0  0
   50.2072  -24.9018 -103.3177 N   0  0  0  0  0  0  0  0  0  0  0  0
   50.3790  -26.0794 -102.6685 C   0  0  0  0  0  0  0  0  0  0  0  0
   49.3487  -26.9201 -102.4386 N   0  0  0  0  0  0  0  0  0  0  0  0
   48.0946  -26.5731 -102.7705 C   0  0  0  0  0  0  0  0  0  0  0  0
   47.8600  -25.3095 -103.4268 C   0  0  0  0  0  0  0  0  0  0  0  0
   48.9849  -24.4758 -103.7006 C   0  0  0  0  0  0  0  0  0  0  0  0
   48.8334  -23.2591 -104.3341 N   0  0  0  0  0  0  0  0  0  0  0  0
   46.5425  -25.2092 -103.6391 N   0  0  0  0  0  0  0  0  0  0  0  0
   45.9578  -26.2724 -103.1733 C   0  0  0  0  0  0  0  0  0  0  0  0
   46.8643  -27.1538 -102.6320 N   0  0  0  0  0  0  0  0  0  0  0  0
  2  1  1  1  0  0  0
  2  3  1  0  0  0  0
  2  5  1  0  0  0  0
  3  4  1  0  0  0  0
  3 17  1  0  0  0  0
  5  6  1  0  0  0  0
  7  6  1  6  0  0  0
  7  8  1  0  0  0  0
  7  9  1  0  0  0  0
 10  9  1  6  0  0  0
 10 11  1  0  0  0  0
 10 12  1  0  0  0  0
 11 16  1  0  0  0  0
 12 13  1  1  0  0  0
 12 14  1  0  0  0  0
 14 15  1  1  0  0  0
 14 16  1  0  0  0  0
 16 27  1  6  0  0  0
 18 19  2  0  0  0  0
 18 23  1  0  0  0  0
 19 20  1  0  0  0  0
 20 21  2  0  0  0  0
 21 22  1  0  0  0  0
 21 27  1  0  0  0  0
 22 23  2  0  0  0  0
 22 25  1  0  0  0  0
 23 24  1  0  0  0  0
 25 26  2  0  0  0  0
 26 27  1  0  0  0  0
M  END
>  <CHROM.1>
151.49092714,50.23278368,175.66340359,-73.85789992,-96.07104619,60.46106354
-88.60014586,46.97707201,-27.98154310,-104.50270719,0.09823732,-0.88262509
-1.94250855

>  <Name>
ligand

>  <RI>
0

>  <Rbt.Current_Directory>
/home/itssahil/PROJECTS/Mol_Feturizer/New_Systems/rnas/4L81

>  <Rbt.Executable>
rbdock ($Id: //depot/dev/client3/rdock/2013.1/src/exe/rbdock.cxx#4 $)

>  <Rbt.Library>
libRbt.so (2013.1, Build901 2013/11/27)

>  <Rbt.Parameter_File>
/export/apps/rDock/src/rDock_2013.1_src/data/scripts/dock_solv.prm

>  <Rbt.Receptor>
prm/pocket_docking_5.prm

>  <SCORE>
-12.2159

>  <SCORE.INTER>
-9.64155

>  <SCORE.INTER.CONST>
1

>  <SCORE.INTER.POLAR>
0

>  <SCORE.INTER.ROT>
7

>  <SCORE.INTER.SOLV>
10.8609

>  <SCORE.INTER.VDW>
-18.3147

>  <SCORE.INTER.norm>
-0.357094

>  <SCORE.INTRA>
-2.57436

>  <SCORE.INTRA.DIHEDRAL>
-2.58218

>  <SCORE.INTRA.DIHEDRAL.0>
8.34559

>  <SCORE.INTRA.POLAR>
0

>  <SCORE.INTRA.POLAR.0>
0

>  <SCORE.INTRA.REPUL>
0

>  <SCORE.INTRA.REPUL.0>
0

>  <SCORE.INTRA.SOLV>
-0.427102

>  <SCORE.INTRA.SOLV.lig_0>
-48.829

>  <SCORE.INTRA.VDW>
-1.06972

>  <SCORE.INTRA.VDW.0>
-1.77092

>  <SCORE.INTRA.norm>
-0.0953466

>  <SCORE.RESTR>
0

>  <SCORE.RESTR.CAVITY>
0

>  <SCORE.RESTR.norm>
0

>  <SCORE.SYSTEM>
0

>  <SCORE.SYSTEM.CONST>
0

>  <SCORE.SYSTEM.DIHEDRAL>
0

>  <SCORE.SYSTEM.SOLV>
0

>  <SCORE.SYSTEM.norm>
0

>  <SCORE.heavy>
27

>  <SCORE.norm>
-0.452441

>  <RMSD>
5.828

$$$$
ligand
 OpenBabel11021811503D
libRbt.so/2013.1/901 2013/11/27
 27 29  0  0  0  0  0  0  0  0999 V2000
   47.9998  -32.8475 -105.5843 N   0  0  0  0  0  0  0  0  0  0  0  0
   47.3568  -31.8803 -104.6878 C   0  0  2  0  0  0  0  0  0  0  0  0
   47.3974  -32.4033 -103.2674 C   0  0  0  0  0  0  0  0  0  0  0  0
   47.5042  -31.6275 -102.3297 O   0  0  0  0  0  0  0  0  0  0  0  0
   45.8945  -31.6366 -105.0849 C   0  0  0  0  0  0  0  0  0  0  0  0
   45.6001  -30.1461 -105.1780 C   0  0  0  0  0  0  0  0  0  0  0  0
   45.9019  -29.2473 -103.6081 S   0  0  2  0  0  0  0  0  0  0  0  0
   44.4542  -29.6587 -102.5813 C   0  0  0  0  0  0  0  0  0  0  0  0
   45.3718  -27.6475 -104.2149 C   0  0  0  0  0  0  0  0  0  0  0  0
   45.9625  -26.4868 -103.4594 C   0  0  1  0  0  0  0  0  0  0  0  0
   46.7169  -27.0166 -102.3561 O   0  0  0  0  0  0  0  0  0  0  0  0
   46.9451  -25.9427 -104.4165 C   0  0  1  0  0  0  0  0  0  0  0  0
   46.3743  -24.8353 -105.1117 O   0  0  0  0  0  0  0  0  0  0  0  0
   48.0446  -25.4698 -103.5168 C   0  0  1  0  0  0  0  0  0  0  0  0
   47.7888  -24.1192 -103.0789 O   0  0  0  0  0  0  0  0  0  0  0  0
   48.0423  -26.4323 -102.2915 C   0  0  2  0  0  0  0  0  0  0  0  0
   47.2908  -33.5970 -103.0464 O   0  0  0  0  0  0  0  0  0  0  0  0
   49.5940  -31.1610 -100.4396 N   0  0  0  0  0  0  0  0  0  0  0  0
   48.5538  -30.4049 -100.0104 C   0  0  0  0  0  0  0  0  0  0  0  0
   48.2384  -29.2321 -100.5986 N   0  0  0  0  0  0  0  0  0  0  0  0
   49.0058  -28.7299 -101.5796 C   0  0  0  0  0  0  0  0  0  0  0  0
   50.1479  -29.4822 -102.0403 C   0  0  0  0  0  0  0  0  0  0  0  0
   50.4127  -30.7433 -101.4282 C   0  0  0  0  0  0  0  0  0  0  0  0
   51.4824  -31.5189 -101.8268 N   0  0  0  0  0  0  0  0  0  0  0  0
   50.7347  -28.7648 -103.0056 N   0  0  0  0  0  0  0  0  0  0  0  0
   50.0739  -27.6576 -103.1695 C   0  0  0  0  0  0  0  0  0  0  0  0
   48.9924  -27.5824 -102.3232 N   0  0  0  0  0  0  0  0  0  0  0  0
  2  1  1  6  0  0  0
  2  3  1  0  0  0  0
  2  5  1  0  0  0  0
  3  4  1  0  0  0  0
  3 17  1  0  0  0  0
  5  6  1  0  0  0  0
  7  6  1  6  0  0  0
  7  8  1  0  0  0  0
  7  9  1  0  0  0  0
 10  9  1  6  0  0  0
 10 11  1  0  0  0  0
 10 12  1  0  0  0  0
 11 16  1  0  0  0  0
 12 13  1  1  0  0  0
 12 14  1  0  0  0  0
 14 15  1  1  0  0  0
 14 16  1  0  0  0  0
 16 27  1  6  0  0  0
 18 19  2  0  0  0  0
 18 23  1  0  0  0  0
 19 20  1  0  0  0  0
 20 21  2  0  0  0  0
 21 22  1  0  0  0  0
 21 27  1  0  0  0  0
 22 23  2  0  0  0  0
 22 25  1  0  0  0  0
 23 24  1  0  0  0  0
 25 26  2  0  0  0  0
 26 27  1  0  0  0  0
M  END
>  <CHROM.1>
146.75966501,-130.33174150,-59.07238499,-77.21262780,-155.97741626,-5.10348697
-49.61832601,47.69384621,-29.10578247,-103.02931574,1.31621400,0.59352424
-3.12751616

>  <Name>
ligand

>  <RI>
0

>  <Rbt.Current_Directory>
/home/itssahil/PROJECTS/Mol_Feturizer/New_Systems/rnas/4L81

>  <Rbt.Executable>
rbdock ($Id: //depot/dev/client3/rdock/2013.1/src/exe/rbdock.cxx#4 $)

>  <Rbt.Library>
libRbt.so (2013.1, Build901 2013/11/27)

>  <Rbt.Parameter_File>
/export/apps/rDock/src/rDock_2013.1_src/data/scripts/dock_solv.prm

>  <Rbt.Receptor>
prm/pocket_docking_4.prm

>  <SCORE>
-9.59222

>  <SCORE.INTER>
-10.4288

>  <SCORE.INTER.CONST>
1

>  <SCORE.INTER.POLAR>
0

>  <SCORE.INTER.ROT>
7

>  <SCORE.INTER.SOLV>
11.1084

>  <SCORE.INTER.VDW>
-18.922

>  <SCORE.INTER.norm>
-0.386253

>  <SCORE.INTRA>
0.836616

>  <SCORE.INTRA.DIHEDRAL>
7.77361

>  <SCORE.INTRA.DIHEDRAL.0>
8.34559

>  <SCORE.INTRA.POLAR>
0

>  <SCORE.INTRA.POLAR.0>
0

>  <SCORE.INTRA.REPUL>
0

>  <SCORE.INTRA.REPUL.0>
0

>  <SCORE.INTRA.SOLV>
-0.840131

>  <SCORE.INTRA.SOLV.lig_0>
-48.829

>  <SCORE.INTRA.VDW>
-2.63012

>  <SCORE.INTRA.VDW.0>
-1.77092

>  <SCORE.INTRA.norm>
0.0309858

>  <SCORE.RESTR>
0

>  <SCORE.RESTR.CAVITY>
0

>  <SCORE.RESTR.norm>
0

>  <SCORE.SYSTEM>
0

>  <SCORE.SYSTEM.CONST>
0

>  <SCORE.SYSTEM.DIHEDRAL>
0

>  <SCORE.SYSTEM.SOLV>
0

>  <SCORE.SYSTEM.norm>
0

>  <SCORE.heavy>
27

>  <SCORE.norm>
-0.355268

>  <RMSD>
5.829

$$$$
ligand
 OpenBabel11021811503D
libRbt.so/2013.1/901 2013/11/27
 27 29  0  0  0  0  0  0  0  0999 V2000
   46.1825  -28.3036 -101.5115 N   0  0  0  0  0  0  0  0  0  0  0  0
   45.9289  -29.7330 -101.2991 C   0  0  2  0  0  0  0  0  0  0  0  0
   44.5001  -29.9296 -100.8379 C   0  0  0  0  0  0  0  0  0  0  0  0
   43.9403  -31.0016 -101.0116 O   0  0  0  0  0  0  0  0  0  0  0  0
   46.8759  -30.3178 -100.2424 C   0  0  0  0  0  0  0  0  0  0  0  0
   48.3238  -30.2262 -100.7031 C   0  0  0  0  0  0  0  0  0  0  0  0
   48.7322  -31.4014 -102.0505 S   0  0  2  0  0  0  0  0  0  0  0  0
   50.5012  -31.1050 -102.3704 C   0  0  0  0  0  0  0  0  0  0  0  0
   48.0369  -30.4081 -103.3690 C   0  0  0  0  0  0  0  0  0  0  0  0
   47.6854  -31.1980 -104.6017 C   0  0  1  0  0  0  0  0  0  0  0  0
   46.7324  -30.4331 -105.3591 O   0  0  0  0  0  0  0  0  0  0  0  0
   48.9451  -31.1778 -105.3703 C   0  0  1  0  0  0  0  0  0  0  0  0
   49.6646  -32.3885 -105.1427 O   0  0  0  0  0  0  0  0  0  0  0  0
   48.4590  -31.1303 -106.7858 C   0  0  1  0  0  0  0  0  0  0  0  0
   48.2285  -32.4651 -107.2822 O   0  0  0  0  0  0  0  0  0  0  0  0
   47.1170  -30.3391 -106.7538 C   0  0  2  0  0  0  0  0  0  0  0  0
   43.9092  -29.0332 -100.2614 O   0  0  0  0  0  0  0  0  0  0  0  0
   45.2137  -25.4266 -106.0879 N   0  0  0  0  0  0  0  0  0  0  0  0
   44.7379  -26.5780 -105.5533 C   0  0  0  0  0  0  0  0  0  0  0  0
   45.3435  -27.7644 -105.7695 N   0  0  0  0  0  0  0  0  0  0  0  0
   46.3947  -27.8553 -106.6002 C   0  0  0  0  0  0  0  0  0  0  0  0
   46.9095  -26.6601 -107.2239 C   0  0  0  0  0  0  0  0  0  0  0  0
   46.2732  -25.4189 -106.9242 C   0  0  0  0  0  0  0  0  0  0  0  0
   46.7200  -24.2365 -107.4782 N   0  0  0  0  0  0  0  0  0  0  0  0
   47.9397  -27.0254 -107.9959 N   0  0  0  0  0  0  0  0  0  0  0  0
   48.0950  -28.3131 -107.9109 C   0  0  0  0  0  0  0  0  0  0  0  0
   47.1761  -28.8797 -107.0588 N   0  0  0  0  0  0  0  0  0  0  0  0
  2  1  1  1  0  0  0
  2  3  1  0  0  0  0
  2  5  1  0  0  0  0
  3  4  1  0  0  0  0
  3 17  1  0  0  0  0
  5  6  1  0  0  0  0
  7  6  1  1  0  0  0
  7  8  1  0  0  0  0
  7  9  1  0  0  0  0
 10  9  1  1  0  0  0
 10 11  1  0  0  0  0
 10 12  1  0  0  0  0
 11 16  1  0  0  0  0
 12 13  1  6  0  0  0
 12 14  1  0  0  0  0
 14 15  1  1  0  0  0
 14 16  1  0  0  0  0
 16 27  1  1  0  0  0
 18 19  2  0  0  0  0
 18 23  1  0  0  0  0
 19 20  1  0  0  0  0
 20 21  2  0  0  0  0
 21 22  1  0  0  0  0
 21 27  1  0  0  0  0
 22 23  2  0  0  0  0
 22 25  1  0  0  0  0
 23 24  1  0  0  0  0
 25 26  2  0  0  0  0
 26 27  1  0  0  0  0
M  END
>  <CHROM.1>
156.22465697,-62.90722999,-72.02276365,-178.76829200,-158.20302258,159.59416959
-35.78074321,47.07908234,-29.40135248,-104.38980065,1.51698903,-0.84176112
2.10077967

>  <Name>
ligand

>  <RI>
0

>  <Rbt.Current_Directory>
/home/itssahil/PROJECTS/Mol_Feturizer/New_Systems/rnas/4L81

>  <Rbt.Executable>
rbdock ($Id: //depot/dev/client3/rdock/2013.1/src/exe/rbdock.cxx#4 $)

>  <Rbt.Library>
libRbt.so (2013.1, Build901 2013/11/27)

>  <Rbt.Parameter_File>
/export/apps/rDock/src/rDock_2013.1_src/data/scripts/dock_solv.prm

>  <Rbt.Receptor>
prm/pocket_docking_6.prm

>  <SCORE>
-12.0753

>  <SCORE.INTER>
-11.4743

>  <SCORE.INTER.CONST>
1

>  <SCORE.INTER.POLAR>
0

>  <SCORE.INTER.ROT>
7

>  <SCORE.INTER.SOLV>
9.34209

>  <SCORE.INTER.VDW>
-19.0303

>  <SCORE.INTER.norm>
-0.424976

>  <SCORE.INTRA>
-0.600999

>  <SCORE.INTRA.DIHEDRAL>
-0.874295

>  <SCORE.INTRA.DIHEDRAL.0>
8.34559

>  <SCORE.INTRA.POLAR>
0

>  <SCORE.INTRA.POLAR.0>
0

>  <SCORE.INTRA.REPUL>
0

>  <SCORE.INTRA.REPUL.0>
0

>  <SCORE.INTRA.SOLV>
1.21326

>  <SCORE.INTRA.SOLV.lig_0>
-48.829

>  <SCORE.INTRA.VDW>
-0.770484

>  <SCORE.INTRA.VDW.0>
-1.77092

>  <SCORE.INTRA.norm>
-0.0222592

>  <SCORE.RESTR>
0

>  <SCORE.RESTR.CAVITY>
0

>  <SCORE.RESTR.norm>
0

>  <SCORE.SYSTEM>
0

>  <SCORE.SYSTEM.CONST>
0

>  <SCORE.SYSTEM.DIHEDRAL>
0

>  <SCORE.SYSTEM.SOLV>
0

>  <SCORE.SYSTEM.norm>
0

>  <SCORE.heavy>
27

>  <SCORE.norm>
-0.447235

>  <RMSD>
5.830

$$$$
ligand
 OpenBabel11021811503D
libRbt.so/2013.1/901 2013/11/27
 27 29  0  0  0  0  0  0  0  0999 V2000
   45.8645  -30.5131  -99.9481 N   0  0  0  0  0  0  0  0  0  0  0  0
   45.7422  -29.1108 -100.3620 C   0  0  2  0  0  0  0  0  0  0  0  0
   44.6128  -28.9757 -101.3614 C   0  0  0  0  0  0  0  0  0  0  0  0
   44.6259  -28.0735 -102.1852 O   0  0  0  0  0  0  0  0  0  0  0  0
   47.0389  -28.6034 -101.0074 C   0  0  0  0  0  0  0  0  0  0  0  0
   47.3192  -29.3393 -102.3100 C   0  0  0  0  0  0  0  0  0  0  0  0
   47.8101  -31.0891 -102.0636 S   0  0  2  0  0  0  0  0  0  0  0  0
   49.5391  -30.9848 -101.4986 C   0  0  0  0  0  0  0  0  0  0  0  0
   48.1002  -31.4376 -103.7965 C   0  0  0  0  0  0  0  0  0  0  0  0
   46.8498  -31.7752 -104.5642 C   0  0  1  0  0  0  0  0  0  0  0  0
   46.0090  -30.6090 -104.5728 O   0  0  0  0  0  0  0  0  0  0  0  0
   47.3500  -31.9416 -105.9425 C   0  0  1  0  0  0  0  0  0  0  0  0
   47.5529  -33.3273 -106.2146 O   0  0  0  0  0  0  0  0  0  0  0  0
   46.2119  -31.4206 -106.7643 C   0  0  1  0  0  0  0  0  0  0  0  0
   45.2611  -32.4728 -107.0290 O   0  0  0  0  0  0  0  0  0  0  0  0
   45.5403  -30.3036 -105.9104 C   0  0  2  0  0  0  0  0  0  0  0  0
   43.7004  -29.7833 -101.3739 O   0  0  0  0  0  0  0  0  0  0  0  0
   48.7369  -26.8456 -108.3643 N   0  0  0  0  0  0  0  0  0  0  0  0
   48.7766  -28.1991 -108.4291 C   0  0  0  0  0  0  0  0  0  0  0  0
   47.8732  -28.9675 -107.7852 N   0  0  0  0  0  0  0  0  0  0  0  0
   46.9514  -28.4127 -106.9814 C   0  0  0  0  0  0  0  0  0  0  0  0
   46.8988  -26.9765 -106.8503 C   0  0  0  0  0  0  0  0  0  0  0  0
   47.8377  -26.1996 -107.5922 C   0  0  0  0  0  0  0  0  0  0  0  0
   47.8370  -24.8214 -107.5209 N   0  0  0  0  0  0  0  0  0  0  0  0
   45.9074  -26.6901 -105.9984 N   0  0  0  0  0  0  0  0  0  0  0  0
   45.3632  -27.7997 -105.5956 C   0  0  0  0  0  0  0  0  0  0  0  0
   45.9597  -28.8961 -106.1735 N   0  0  0  0  0  0  0  0  0  0  0  0
  2  1  1  6  0  0  0
  2  3  1  0  0  0  0
  2  5  1  0  0  0  0
  3  4  1  0  0  0  0
  3 17  1  0  0  0  0
  5  6  1  0  0  0  0
  7  6  1  6  0  0  0
  7  8  1  0  0  0  0
  7  9  1  0  0  0  0
 10  9  1  1  0  0  0
 10 11  1  0  0  0  0
 10 12  1  0  0  0  0
 11 16  1  0  0  0  0
 12 13  1  6  0  0  0
 12 14  1  0  0  0  0
 14 15  1  1  0  0  0
 14 16  1  0  0  0  0
 16 27  1  6  0  0  0
 18 19  2  0  0  0  0
 18 23  1  0  0  0  0
 19 20  1  0  0  0  0
 20 21  2  0  0  0  0
 21 22  1  0  0  0  0
 21 27  1  0  0  0  0
 22 23  2  0  0  0  0
 22 25  1  0  0  0  0
 23 24  1  0  0  0  0
 25 26  2  0  0  0  0
 26 27  1  0  0  0  0
M  END
>  <CHROM.1>
-153.19973616,65.16796098,-70.50148190,-76.13248572,-82.63667866,64.84907408
106.64579904,46.74312959,-29.54233370,-104.56078981,2.31641957,-1.32467535
2.68091307

>  <Name>
ligand

>  <RI>
0

>  <Rbt.Current_Directory>
/home/itssahil/PROJECTS/Mol_Feturizer/New_Systems/rnas/4L81

>  <Rbt.Executable>
rbdock ($Id: //depot/dev/client3/rdock/2013.1/src/exe/rbdock.cxx#4 $)

>  <Rbt.Library>
libRbt.so (2013.1, Build901 2013/11/27)

>  <Rbt.Parameter_File>
/export/apps/rDock/src/rDock_2013.1_src/data/scripts/dock_solv.prm

>  <Rbt.Receptor>
prm/pocket_docking_6.prm

>  <SCORE>
-11.7851

>  <SCORE.INTER>
-10.3358

>  <SCORE.INTER.CONST>
1

>  <SCORE.INTER.POLAR>
0

>  <SCORE.INTER.ROT>
7

>  <SCORE.INTER.SOLV>
12.9083

>  <SCORE.INTER.VDW>
-19.46

>  <SCORE.INTER.norm>
-0.382807

>  <SCORE.INTRA>
-1.44927

>  <SCORE.INTRA.DIHEDRAL>
-3.62339

>  <SCORE.INTRA.DIHEDRAL.0>
8.34559

>  <SCORE.INTRA.POLAR>
0

>  <SCORE.INTRA.POLAR.0>
0

>  <SCORE.INTRA.REPUL>
0

>  <SCORE.INTRA.REPUL.0>
0

>  <SCORE.INTRA.SOLV>
1.37091

>  <SCORE.INTRA.SOLV.lig_0>
-48.829

>  <SCORE.INTRA.VDW>
-0.323032

>  <SCORE.INTRA.VDW.0>
-1.77092

>  <SCORE.INTRA.norm>
-0.0536768

>  <SCORE.RESTR>
0

>  <SCORE.RESTR.CAVITY>
0

>  <SCORE.RESTR.norm>
0

>  <SCORE.SYSTEM>
0

>  <SCORE.SYSTEM.CONST>
0

>  <SCORE.SYSTEM.DIHEDRAL>
0

>  <SCORE.SYSTEM.SOLV>
0

>  <SCORE.SYSTEM.norm>
0

>  <SCORE.heavy>
27

>  <SCORE.norm>
-0.436484

>  <RMSD>
5.841

$$$$
ligand
 OpenBabel11021811503D
libRbt.so/2013.1/901 2013/11/27
 27 29  0  0  0  0  0  0  0  0999 V2000
   47.0293  -31.4466 -104.0351 N   0  0  0  0  0  0  0  0  0  0  0  0
   46.6096  -32.1310 -105.2631 C   0  0  2  0  0  0  0  0  0  0  0  0
   47.6616  -33.1447 -105.6613 C   0  0  0  0  0  0  0  0  0  0  0  0
   48.6772  -33.2708 -104.9940 O   0  0  0  0  0  0  0  0  0  0  0  0
   46.4152  -31.1386 -106.4176 C   0  0  0  0  0  0  0  0  0  0  0  0
   45.2114  -30.2422 -106.1638 C   0  0  0  0  0  0  0  0  0  0  0  0
   45.4392  -29.1068 -104.7417 S   0  0  2  0  0  0  0  0  0  0  0  0
   44.3269  -29.7760 -103.4631 C   0  0  0  0  0  0  0  0  0  0  0  0
   44.3845  -27.8078 -105.3812 C   0  0  0  0  0  0  0  0  0  0  0  0
   44.7937  -26.4258 -104.9457 C   0  0  1  0  0  0  0  0  0  0  0  0
   45.1326  -26.4853 -103.5498 O   0  0  0  0  0  0  0  0  0  0  0  0
   46.0588  -26.2166 -105.6759 C   0  0  1  0  0  0  0  0  0  0  0  0
   45.8089  -25.4631 -106.8613 O   0  0  0  0  0  0  0  0  0  0  0  0
   46.8582  -25.3988 -104.7093 C   0  0  1  0  0  0  0  0  0  0  0  0
   46.5752  -23.9951 -104.8854 O   0  0  0  0  0  0  0  0  0  0  0  0
   46.4111  -25.8539 -103.2876 C   0  0  2  0  0  0  0  0  0  0  0  0
   47.4892  -33.8646 -106.6293 O   0  0  0  0  0  0  0  0  0  0  0  0
   46.8014  -29.9641  -99.9481 N   0  0  0  0  0  0  0  0  0  0  0  0
   45.6927  -29.2439 -100.2482 C   0  0  0  0  0  0  0  0  0  0  0  0
   45.7198  -28.2426 -101.1524 N   0  0  0  0  0  0  0  0  0  0  0  0
   46.8757  -27.8669 -101.7236 C   0  0  0  0  0  0  0  0  0  0  0  0
   48.0886  -28.5795 -101.4020 C   0  0  0  0  0  0  0  0  0  0  0  0
   48.0048  -29.6673 -100.4828 C   0  0  0  0  0  0  0  0  0  0  0  0
   49.1239  -30.3978 -100.1384 N   0  0  0  0  0  0  0  0  0  0  0  0
   49.0818  -28.0080 -102.0932 N   0  0  0  0  0  0  0  0  0  0  0  0
   48.5988  -27.0225 -102.7896 C   0  0  0  0  0  0  0  0  0  0  0  0
   47.2418  -26.8909 -102.6087 N   0  0  0  0  0  0  0  0  0  0  0  0
  2  1  1  1  0  0  0
  2  3  1  0  0  0  0
  2  5  1  0  0  0  0
  3  4  1  0  0  0  0
  3 17  1  0  0  0  0
  5  6  1  0  0  0  0
  7  6  1  6  0  0  0
  7  8  1  0  0  0  0
  7  9  1  0  0  0  0
 10  9  1  6  0  0  0
 10 11  1  0  0  0  0
 10 12  1  0  0  0  0
 11 16  1  0  0  0  0
 12 13  1  6  0  0  0
 12 14  1  0  0  0  0
 14 15  1  6  0  0  0
 14 16  1  0  0  0  0
 16 27  1  6  0  0  0
 18 19  2  0  0  0  0
 18 23  1  0  0  0  0
 19 20  1  0  0  0  0
 20 21  2  0  0  0  0
 21 22  1  0  0  0  0
 21 27  1  0  0  0  0
 22 23  2  0  0  0  0
 22 25  1  0  0  0  0
 23 24  1  0  0  0  0
 25 26  2  0  0  0  0
 26 27  1  0  0  0  0
M  END
>  <CHROM.1>
-1.01849399,-68.60593172,66.70870654,-108.85984963,-149.68828599,-42.83385661
-35.20694294,46.59075147,-28.82028166,-103.80459828,-1.06776034,-1.19015001
0.57567266

>  <Name>
ligand

>  <RI>
0

>  <Rbt.Current_Directory>
/home/itssahil/PROJECTS/Mol_Feturizer/New_Systems/rnas/4L81

>  <Rbt.Executable>
rbdock ($Id: //depot/dev/client3/rdock/2013.1/src/exe/rbdock.cxx#4 $)

>  <Rbt.Library>
libRbt.so (2013.1, Build901 2013/11/27)

>  <Rbt.Parameter_File>
/export/apps/rDock/src/rDock_2013.1_src/data/scripts/dock_solv.prm

>  <Rbt.Receptor>
prm/pocket_docking_7.prm

>  <SCORE>
-9.73662

>  <SCORE.INTER>
-10.0733

>  <SCORE.INTER.CONST>
1

>  <SCORE.INTER.POLAR>
0

>  <SCORE.INTER.ROT>
7

>  <SCORE.INTER.SOLV>
14.4705

>  <SCORE.INTER.VDW>
-19.8057

>  <SCORE.INTER.norm>
-0.373086

>  <SCORE.INTRA>
0.336688

>  <SCORE.INTRA.DIHEDRAL>
2.54965

>  <SCORE.INTRA.DIHEDRAL.0>
8.34559

>  <SCORE.INTRA.POLAR>
0

>  <SCORE.INTRA.POLAR.0>
0

>  <SCORE.INTRA.REPUL>
0

>  <SCORE.INTRA.REPUL.0>
0

>  <SCORE.INTRA.SOLV>
2.00769

>  <SCORE.INTRA.SOLV.lig_0>
-48.829

>  <SCORE.INTRA.VDW>
-1.94198

>  <SCORE.INTRA.VDW.0>
-1.77092

>  <SCORE.INTRA.norm>
0.0124699

>  <SCORE.RESTR>
0

>  <SCORE.RESTR.CAVITY>
0

>  <SCORE.RESTR.norm>
0

>  <SCORE.SYSTEM>
0

>  <SCORE.SYSTEM.CONST>
0

>  <SCORE.SYSTEM.DIHEDRAL>
0

>  <SCORE.SYSTEM.SOLV>
0

>  <SCORE.SYSTEM.norm>
0

>  <SCORE.heavy>
27

>  <SCORE.norm>
-0.360616

>  <RMSD>
5.855

$$$$
ligand
 OpenBabel11021811503D
libRbt.so/2013.1/901 2013/11/27
 27 29  0  0  0  0  0  0  0  0999 V2000
   48.0496  -29.9788 -103.9218 N   0  0  0  0  0  0  0  0  0  0  0  0
   49.3502  -30.4648 -103.4474 C   0  0  2  0  0  0  0  0  0  0  0  0
   49.1721  -31.8092 -102.7739 C   0  0  0  0  0  0  0  0  0  0  0  0
   48.0518  -32.2277 -102.5241 O   0  0  0  0  0  0  0  0  0  0  0  0
   49.9804  -29.4878 -102.4456 C   0  0  0  0  0  0  0  0  0  0  0  0
   50.5890  -28.2924 -103.1650 C   0  0  0  0  0  0  0  0  0  0  0  0
   49.3353  -27.1483 -103.8598 S   0  0  2  0  0  0  0  0  0  0  0  0
   49.1487  -27.6978 -105.5870 C   0  0  0  0  0  0  0  0  0  0  0  0
   50.4654  -25.7828 -104.1188 C   0  0  0  0  0  0  0  0  0  0  0  0
   49.7787  -24.4751 -104.4105 C   0  0  1  0  0  0  0  0  0  0  0  0
   48.8337  -24.6997 -105.4704 O   0  0  0  0  0  0  0  0  0  0  0  0
   48.9882  -24.2433 -103.1861 C   0  0  1  0  0  0  0  0  0  0  0  0
   49.6946  -23.3560 -102.3205 O   0  0  0  0  0  0  0  0  0  0  0  0
   47.7605  -23.5701 -103.7168 C   0  0  1  0  0  0  0  0  0  0  0  0
   47.9665  -22.1447 -103.8012 O   0  0  0  0  0  0  0  0  0  0  0  0
   47.5302  -24.1563 -105.1421 C   0  0  2  0  0  0  0  0  0  0  0  0
   50.1410  -32.4980 -102.5061 O   0  0  0  0  0  0  0  0  0  0  0  0
   44.9657  -28.2609 -102.9571 N   0  0  0  0  0  0  0  0  0  0  0  0
   45.8713  -27.4422 -102.3676 C   0  0  0  0  0  0  0  0  0  0  0  0
   46.4227  -26.4019 -103.0269 N   0  0  0  0  0  0  0  0  0  0  0  0
   46.1555  -26.1958 -104.3268 C   0  0  0  0  0  0  0  0  0  0  0  0
   45.2281  -27.0684 -105.0058 C   0  0  0  0  0  0  0  0  0  0  0  0
   44.6259  -28.1224 -104.2562 C   0  0  0  0  0  0  0  0  0  0  0  0
   43.7231  -28.9873 -104.8404 N   0  0  0  0  0  0  0  0  0  0  0  0
   45.1461  -26.6526 -106.2751 N   0  0  0  0  0  0  0  0  0  0  0  0
   45.9310  -25.6291 -106.4356 C   0  0  0  0  0  0  0  0  0  0  0  0
   46.5749  -25.2957 -105.2669 N   0  0  0  0  0  0  0  0  0  0  0  0
  2  1  1  1  0  0  0
  2  3  1  0  0  0  0
  2  5  1  0  0  0  0
  3  4  1  0  0  0  0
  3 17  1  0  0  0  0
  5  6  1  0  0  0  0
  7  6  1  1  0  0  0
  7  8  1  0  0  0  0
  7  9  1  0  0  0  0
 10  9  1  1  0  0  0
 10 11  1  0  0  0  0
 10 12  1  0  0  0  0
 11 16  1  0  0  0  0
 12 13  1  1  0  0  0
 12 14  1  0  0  0  0
 14 15  1  6  0  0  0
 14 16  1  0  0  0  0
 16 27  1  1  0  0  0
 18 19  2  0  0  0  0
 18 23  1  0  0  0  0
 19 20  1  0  0  0  0
 20 21  2  0  0  0  0
 21 22  1  0  0  0  0
 21 27  1  0  0  0  0
 22 23  2  0  0  0  0
 22 25  1  0  0  0  0
 23 24  1  0  0  0  0
 25 26  2  0  0  0  0
 26 27  1  0  0  0  0
M  END
>  <CHROM.1>
-10.52648305,-77.52299359,71.55181054,-94.82109365,-166.87735654,-50.79881371
90.86630412,47.90283289,-27.11794134,-103.94432657,1.45539249,0.27476053
2.98250841

>  <Name>
ligand

>  <RI>
0

>  <Rbt.Current_Directory>
/home/itssahil/PROJECTS/Mol_Feturizer/New_Systems/rnas/4L81

>  <Rbt.Executable>
rbdock ($Id: //depot/dev/client3/rdock/2013.1/src/exe/rbdock.cxx#4 $)

>  <Rbt.Library>
libRbt.so (2013.1, Build901 2013/11/27)

>  <Rbt.Parameter_File>
/export/apps/rDock/src/rDock_2013.1_src/data/scripts/dock_solv.prm

>  <Rbt.Receptor>
prm/pocket_docking_5.prm

>  <SCORE>
-7.61855

>  <SCORE.INTER>
-5.89196

>  <SCORE.INTER.CONST>
1

>  <SCORE.INTER.POLAR>
0

>  <SCORE.INTER.ROT>
7

>  <SCORE.INTER.SOLV>
11.412

>  <SCORE.INTER.VDW>
-15.9986

>  <SCORE.INTER.norm>
-0.218221

>  <SCORE.INTRA>
-1.72802

>  <SCORE.INTRA.DIHEDRAL>
-0.339873

>  <SCORE.INTRA.DIHEDRAL.0>
8.34559

>  <SCORE.INTRA.POLAR>
0

>  <SCORE.INTRA.POLAR.0>
0

>  <SCORE.INTRA.REPUL>
0

>  <SCORE.INTRA.REPUL.0>
0

>  <SCORE.INTRA.SOLV>
2.39595

>  <SCORE.INTRA.SOLV.lig_0>
-48.829

>  <SCORE.INTRA.VDW>
-2.75606

>  <SCORE.INTRA.VDW.0>
-1.77092

>  <SCORE.INTRA.norm>
-0.0640008

>  <SCORE.RESTR>
0.00143125

>  <SCORE.RESTR.CAVITY>
0.00143125

>  <SCORE.RESTR.norm>
5.30093e-05

>  <SCORE.SYSTEM>
0

>  <SCORE.SYSTEM.CONST>
0

>  <SCORE.SYSTEM.DIHEDRAL>
0

>  <SCORE.SYSTEM.SOLV>
0

>  <SCORE.SYSTEM.norm>
0

>  <SCORE.heavy>
27

>  <SCORE.norm>
-0.282168

>  <RMSD>
5.863

$$$$
ligand
 OpenBabel11021811503D
libRbt.so/2013.1/901 2013/11/27
 27 29  0  0  0  0  0  0  0  0999 V2000
   51.4423  -31.8674 -101.5732 N   0  0  0  0  0  0  0  0  0  0  0  0
   51.1774  -31.6279 -102.9963 C   0  0  2  0  0  0  0  0  0  0  0  0
   50.9957  -30.1436 -103.2336 C   0  0  0  0  0  0  0  0  0  0  0  0
   51.4673  -29.3337 -102.4498 O   0  0  0  0  0  0  0  0  0  0  0  0
   49.9128  -32.3629 -103.4610 C   0  0  0  0  0  0  0  0  0  0  0  0
   48.6706  -31.7624 -102.8181 C   0  0  0  0  0  0  0  0  0  0  0  0
   47.1299  -32.6668 -103.2322 S   0  0  2  0  0  0  0  0  0  0  0  0
   47.0203  -32.5399 -105.0464 C   0  0  0  0  0  0  0  0  0  0  0  0
   46.0176  -31.3346 -102.7886 C   0  0  0  0  0  0  0  0  0  0  0  0
   46.2911  -30.7436 -101.4311 C   0  0  1  0  0  0  0  0  0  0  0  0
   47.3441  -29.7754 -101.5755 O   0  0  0  0  0  0  0  0  0  0  0  0
   45.0573  -29.9830 -101.1536 C   0  0  1  0  0  0  0  0  0  0  0  0
   44.1906  -30.7604 -100.3290 O   0  0  0  0  0  0  0  0  0  0  0  0
   45.5705  -28.8036 -100.3869 C   0  0  1  0  0  0  0  0  0  0  0  0
   45.6441  -29.1132  -98.9798 O   0  0  0  0  0  0  0  0  0  0  0  0
   46.9987  -28.5184 -100.9409 C   0  0  2  0  0  0  0  0  0  0  0  0
   50.4075  -29.7447 -104.2235 O   0  0  0  0  0  0  0  0  0  0  0  0
   44.8774  -25.7990 -104.9786 N   0  0  0  0  0  0  0  0  0  0  0  0
   44.3014  -26.7904 -104.2554 C   0  0  0  0  0  0  0  0  0  0  0  0
   44.9384  -27.3756 -103.2196 N   0  0  0  0  0  0  0  0  0  0  0  0
   46.2083  -27.0522 -102.9258 C   0  0  0  0  0  0  0  0  0  0  0  0
   46.8750  -26.0304 -103.6964 C   0  0  0  0  0  0  0  0  0  0  0  0
   46.1456  -25.3986 -104.7472 C   0  0  0  0  0  0  0  0  0  0  0  0
   46.7188  -24.4069 -105.5171 N   0  0  0  0  0  0  0  0  0  0  0  0
   48.1146  -25.9076 -103.2076 N   0  0  0  0  0  0  0  0  0  0  0  0
   48.2689  -26.7517 -102.2314 C   0  0  0  0  0  0  0  0  0  0  0  0
   47.1247  -27.4807 -102.0057 N   0  0  0  0  0  0  0  0  0  0  0  0
  2  1  1  1  0  0  0
  2  3  1  0  0  0  0
  2  5  1  0  0  0  0
  3  4  1  0  0  0  0
  3 17  1  0  0  0  0
  5  6  1  0  0  0  0
  7  6  1  6  0  0  0
  7  8  1  0  0  0  0
  7  9  1  0  0  0  0
 10  9  1  6  0  0  0
 10 11  1  0  0  0  0
 10 12  1  0  0  0  0
 11 16  1  0  0  0  0
 12 13  1  1  0  0  0
 12 14  1  0  0  0  0
 14 15  1  1  0  0  0
 14 16  1  0  0  0  0
 16 27  1  6  0  0  0
 18 19  2  0  0  0  0
 18 23  1  0  0  0  0
 19 20  1  0  0  0  0
 20 21  2  0  0  0  0
 21 22  1  0  0  0  0
 21 27  1  0  0  0  0
 22 23  2  0  0  0  0
 22 25  1  0  0  0  0
 23 24  1  0  0  0  0
 25 26  2  0  0  0  0
 26 27  1  0  0  0  0
M  END
>  <CHROM.1>
22.71635214,67.90072175,-175.84261383,-60.46659021,-49.66298558,83.25281132
87.15104604,47.37823791,-29.28558228,-102.71028291,-0.95471421,0.36229313
-0.37601286

>  <Name>
ligand

>  <RI>
0

>  <Rbt.Current_Directory>
/home/itssahil/PROJECTS/Mol_Feturizer/New_Systems/rnas/4L81

>  <Rbt.Executable>
rbdock ($Id: //depot/dev/client3/rdock/2013.1/src/exe/rbdock.cxx#4 $)

>  <Rbt.Library>
libRbt.so (2013.1, Build901 2013/11/27)

>  <Rbt.Parameter_File>
/export/apps/rDock/src/rDock_2013.1_src/data/scripts/dock_solv.prm

>  <Rbt.Receptor>
prm/pocket_docking_3.prm

>  <SCORE>
-16.9612

>  <SCORE.INTER>
-17.3104

>  <SCORE.INTER.CONST>
1

>  <SCORE.INTER.POLAR>
0

>  <SCORE.INTER.ROT>
7

>  <SCORE.INTER.SOLV>
14.0011

>  <SCORE.INTER.VDW>
-24.474

>  <SCORE.INTER.norm>
-0.641127

>  <SCORE.INTRA>
0.348026

>  <SCORE.INTRA.DIHEDRAL>
-2.03088

>  <SCORE.INTRA.DIHEDRAL.0>
8.34559

>  <SCORE.INTRA.POLAR>
0

>  <SCORE.INTRA.POLAR.0>
0

>  <SCORE.INTRA.REPUL>
0

>  <SCORE.INTRA.REPUL.0>
0

>  <SCORE.INTRA.SOLV>
-0.569052

>  <SCORE.INTRA.SOLV.lig_0>
-48.829

>  <SCORE.INTRA.VDW>
1.64799

>  <SCORE.INTRA.VDW.0>
-1.77092

>  <SCORE.INTRA.norm>
0.0128898

>  <SCORE.RESTR>
0.00116959

>  <SCORE.RESTR.CAVITY>
0.00116959

>  <SCORE.RESTR.norm>
4.3318e-05

>  <SCORE.SYSTEM>
0

>  <SCORE.SYSTEM.CONST>
0

>  <SCORE.SYSTEM.DIHEDRAL>
0

>  <SCORE.SYSTEM.SOLV>
0

>  <SCORE.SYSTEM.norm>
0

>  <SCORE.heavy>
27

>  <SCORE.norm>
-0.628194

>  <RMSD>
5.878

$$$$
ligand
 OpenBabel11021811503D
libRbt.so/2013.1/901 2013/11/27
 27 29  0  0  0  0  0  0  0  0999 V2000
   52.5862  -33.5540 -101.0073 N   0  0  0  0  0  0  0  0  0  0  0  0
   51.3379  -32.8163 -101.2314 C   0  0  2  0  0  0  0  0  0  0  0  0
   51.1647  -32.5545 -102.7127 C   0  0  0  0  0  0  0  0  0  0  0  0
   50.0881  -32.7621 -103.2517 O   0  0  0  0  0  0  0  0  0  0  0  0
   51.3406  -31.4739 -100.4875 C   0  0  0  0  0  0  0  0  0  0  0  0
   49.9435  -30.8709 -100.4539 C   0  0  0  0  0  0  0  0  0  0  0  0
   49.4474  -30.1002 -102.0425 S   0  0  2  0  0  0  0  0  0  0  0  0
   50.9550  -29.2462 -102.6059 C   0  0  0  0  0  0  0  0  0  0  0  0
   48.5937  -28.7086 -101.3055 C   0  0  0  0  0  0  0  0  0  0  0  0
   47.1024  -28.8934 -101.2114 C   0  0  1  0  0  0  0  0  0  0  0  0
   46.6209  -29.2664 -102.5136 O   0  0  0  0  0  0  0  0  0  0  0  0
   46.9770  -30.0915 -100.3589 C   0  0  1  0  0  0  0  0  0  0  0  0
   46.7297  -29.6963  -99.0105 O   0  0  0  0  0  0  0  0  0  0  0  0
   45.7653  -30.7650 -100.9247 C   0  0  1  0  0  0  0  0  0  0  0  0
   44.5692  -30.2512 -100.3031 O   0  0  0  0  0  0  0  0  0  0  0  0
   45.7568  -30.4286 -102.4462 C   0  0  2  0  0  0  0  0  0  0  0  0
   52.0858  -32.1042 -103.3712 O   0  0  0  0  0  0  0  0  0  0  0  0
   46.3172  -32.4031 -107.3437 N   0  0  0  0  0  0  0  0  0  0  0  0
   45.5330  -31.3685 -106.9532 C   0  0  0  0  0  0  0  0  0  0  0  0
   45.5132  -30.9356 -105.6752 N   0  0  0  0  0  0  0  0  0  0  0  0
   46.2093  -31.5786 -104.7236 C   0  0  0  0  0  0  0  0  0  0  0  0
   47.0261  -32.7113 -105.0875 C   0  0  0  0  0  0  0  0  0  0  0  0
   47.0610  -33.1009 -106.4595 C   0  0  0  0  0  0  0  0  0  0  0  0
   47.8285  -34.1688 -106.8782 N   0  0  0  0  0  0  0  0  0  0  0  0
   47.6009  -33.1645 -103.9673 N   0  0  0  0  0  0  0  0  0  0  0  0
   47.2112  -32.4320 -102.9668 C   0  0  0  0  0  0  0  0  0  0  0  0
   46.3576  -31.4326 -103.3721 N   0  0  0  0  0  0  0  0  0  0  0  0
  2  1  1  6  0  0  0
  2  3  1  0  0  0  0
  2  5  1  0  0  0  0
  3  4  1  0  0  0  0
  3 17  1  0  0  0  0
  5  6  1  0  0  0  0
  7  6  1  1  0  0  0
  7  8  1  0  0  0  0
  7  9  1  0  0  0  0
 10  9  1  6  0  0  0
 10 11  1  0  0  0  0
 10 12  1  0  0  0  0
 11 16  1  0  0  0  0
 12 13  1  1  0  0  0
 12 14  1  0  0  0  0
 14 15  1  1  0  0  0
 14 16  1  0  0  0  0
 16 27  1  6  0  0  0
 18 19  2  0  0  0  0
 18 23  1  0  0  0  0
 19 20  1  0  0  0  0
 20 21  2  0  0  0  0
 21 22  1  0  0  0  0
 21 27  1  0  0  0  0
 22 23  2  0  0  0  0
 22 25  1  0  0  0  0
 23 24  1  0  0  0  0
 25 26  2  0  0  0  0
 26 27  1  0  0  0  0
M  END
>  <CHROM.1>
133.79333411,-166.75180146,-76.97227915,-40.67781423,-97.71289711,-51.86108196
-84.60955409,48.16443380,-31.26892406,-102.80371807,-0.83258970,0.31075754
-2.07485413

>  <Name>
ligand

>  <RI>
0

>  <Rbt.Current_Directory>
/home/itssahil/PROJECTS/Mol_Feturizer/New_Systems/rnas/4L81

>  <Rbt.Executable>
rbdock ($Id: //depot/dev/client3/rdock/2013.1/src/exe/rbdock.cxx#4 $)

>  <Rbt.Library>
libRbt.so (2013.1, Build901 2013/11/27)

>  <Rbt.Parameter_File>
/export/apps/rDock/src/rDock_2013.1_src/data/scripts/dock_solv.prm

>  <Rbt.Receptor>
prm/pocket_docking_7.prm

>  <SCORE>
-15.2043

>  <SCORE.INTER>
-14.6792

>  <SCORE.INTER.CONST>
1

>  <SCORE.INTER.POLAR>
0

>  <SCORE.INTER.ROT>
7

>  <SCORE.INTER.SOLV>
16.8239

>  <SCORE.INTER.VDW>
-23.6608

>  <SCORE.INTER.norm>
-0.543676

>  <SCORE.INTRA>
-0.525018

>  <SCORE.INTRA.DIHEDRAL>
1.05123

>  <SCORE.INTRA.DIHEDRAL.0>
8.34559

>  <SCORE.INTRA.POLAR>
0

>  <SCORE.INTRA.POLAR.0>
0

>  <SCORE.INTRA.REPUL>
0

>  <SCORE.INTRA.REPUL.0>
0

>  <SCORE.INTRA.SOLV>
-0.793381

>  <SCORE.INTRA.SOLV.lig_0>
-48.829

>  <SCORE.INTRA.VDW>
-0.65394

>  <SCORE.INTRA.VDW.0>
-1.77092

>  <SCORE.INTRA.norm>
-0.0194451

>  <SCORE.RESTR>
0

>  <SCORE.RESTR.CAVITY>
0

>  <SCORE.RESTR.norm>
0

>  <SCORE.SYSTEM>
0

>  <SCORE.SYSTEM.CONST>
0

>  <SCORE.SYSTEM.DIHEDRAL>
0

>  <SCORE.SYSTEM.SOLV>
0

>  <SCORE.SYSTEM.norm>
0

>  <SCORE.heavy>
27

>  <SCORE.norm>
-0.563121

>  <RMSD>
5.882

$$$$
ligand
 OpenBabel11021811503D
libRbt.so/2013.1/901 2013/11/27
 27 29  0  0  0  0  0  0  0  0999 V2000
   44.2445  -29.3553 -100.3592 N   0  0  0  0  0  0  0  0  0  0  0  0
   44.4166  -29.8784 -101.7192 C   0  0  2  0  0  0  0  0  0  0  0  0
   43.1782  -30.6497 -102.1243 C   0  0  0  0  0  0  0  0  0  0  0  0
   42.5936  -30.3728 -103.1608 O   0  0  0  0  0  0  0  0  0  0  0  0
   45.6329  -30.8099 -101.8099 C   0  0  0  0  0  0  0  0  0  0  0  0
   46.8774  -30.1308 -101.2559 C   0  0  0  0  0  0  0  0  0  0  0  0
   48.4257  -31.0427 -101.6228 S   0  0  2  0  0  0  0  0  0  0  0  0
   49.7299  -30.0109 -100.8783 C   0  0  0  0  0  0  0  0  0  0  0  0
   48.5610  -30.4868 -103.3203 C   0  0  0  0  0  0  0  0  0  0  0  0
   48.1467  -31.5223 -104.3317 C   0  0  1  0  0  0  0  0  0  0  0  0
   47.2708  -30.8880 -105.2791 O   0  0  0  0  0  0  0  0  0  0  0  0
   49.4073  -31.8002 -105.0468 C   0  0  1  0  0  0  0  0  0  0  0  0
   50.0134  -32.9751 -104.5104 O   0  0  0  0  0  0  0  0  0  0  0  0
   48.9355  -32.0607 -106.4438 C   0  0  1  0  0  0  0  0  0  0  0  0
   48.5883  -33.4517 -106.6051 O   0  0  0  0  0  0  0  0  0  0  0  0
   47.6702  -31.1734 -106.6433 C   0  0  2  0  0  0  0  0  0  0  0  0
   42.7746  -31.5725 -101.4386 O   0  0  0  0  0  0  0  0  0  0  0  0
   46.2517  -26.0875 -107.2083 N   0  0  0  0  0  0  0  0  0  0  0  0
   45.6775  -27.0233 -106.4131 C   0  0  0  0  0  0  0  0  0  0  0  0
   46.1645  -28.2791 -106.3292 N   0  0  0  0  0  0  0  0  0  0  0  0
   47.1890  -28.6695 -107.1047 C   0  0  0  0  0  0  0  0  0  0  0  0
   47.8046  -27.7167 -107.9967 C   0  0  0  0  0  0  0  0  0  0  0  0
   47.2937  -26.3848 -108.0132 C   0  0  0  0  0  0  0  0  0  0  0  0
   47.8416  -25.4209 -108.8351 N   0  0  0  0  0  0  0  0  0  0  0  0
   48.7832  -28.3557 -108.6486 N   0  0  0  0  0  0  0  0  0  0  0  0
   48.8172  -29.5928 -108.2515 C   0  0  0  0  0  0  0  0  0  0  0  0
   47.8624  -29.8445 -107.2940 N   0  0  0  0  0  0  0  0  0  0  0  0
  2  1  1  1  0  0  0
  2  3  1  0  0  0  0
  2  5  1  0  0  0  0
  3  4  1  0  0  0  0
  3 17  1  0  0  0  0
  5  6  1  0  0  0  0
  7  6  1  1  0  0  0
  7  8  1  0  0  0  0
  7  9  1  0  0  0  0
 10  9  1  1  0  0  0
 10 11  1  0  0  0  0
 10 12  1  0  0  0  0
 11 16  1  0  0  0  0
 12 13  1  1  0  0  0
 12 14  1  0  0  0  0
 14 15  1  1  0  0  0
 14 16  1  0  0  0  0
 16 27  1  6  0  0  0
 18 19  2  0  0  0  0
 18 23  1  0  0  0  0
 19 20  1  0  0  0  0
 20 21  2  0  0  0  0
 21 22  1  0  0  0  0
 21 27  1  0  0  0  0
 22 23  2  0  0  0  0
 22 25  1  0  0  0  0
 23 24  1  0  0  0  0
 25 26  2  0  0  0  0
 26 27  1  0  0  0  0
M  END
>  <CHROM.1>
126.22916859,-52.49193561,-168.79517065,179.21388464,-102.95117441,132.78763015
-34.50699188,47.09664085,-29.97079531,-104.67896278,1.96780211,-0.57665998
2.18998571

>  <Name>
ligand

>  <RI>
0

>  <Rbt.Current_Directory>
/home/itssahil/PROJECTS/Mol_Feturizer/New_Systems/rnas/4L81

>  <Rbt.Executable>
rbdock ($Id: //depot/dev/client3/rdock/2013.1/src/exe/rbdock.cxx#4 $)

>  <Rbt.Library>
libRbt.so (2013.1, Build901 2013/11/27)

>  <Rbt.Parameter_File>
/export/apps/rDock/src/rDock_2013.1_src/data/scripts/dock_solv.prm

>  <Rbt.Receptor>
prm/pocket_docking_5.prm

>  <SCORE>
-12.011

>  <SCORE.INTER>
-12.5545

>  <SCORE.INTER.CONST>
1

>  <SCORE.INTER.POLAR>
0

>  <SCORE.INTER.ROT>
7

>  <SCORE.INTER.SOLV>
13.8608

>  <SCORE.INTER.VDW>
-21.2566

>  <SCORE.INTER.norm>
-0.464982

>  <SCORE.INTRA>
0.543473

>  <SCORE.INTRA.DIHEDRAL>
3.07491

>  <SCORE.INTRA.DIHEDRAL.0>
8.34559

>  <SCORE.INTRA.POLAR>
0

>  <SCORE.INTRA.POLAR.0>
0

>  <SCORE.INTRA.REPUL>
0

>  <SCORE.INTRA.REPUL.0>
0

>  <SCORE.INTRA.SOLV>
-0.463281

>  <SCORE.INTRA.SOLV.lig_0>
-48.829

>  <SCORE.INTRA.VDW>
-0.762342

>  <SCORE.INTRA.VDW.0>
-1.77092

>  <SCORE.INTRA.norm>
0.0201286

>  <SCORE.RESTR>
0

>  <SCORE.RESTR.CAVITY>
0

>  <SCORE.RESTR.norm>
0

>  <SCORE.SYSTEM>
0

>  <SCORE.SYSTEM.CONST>
0

>  <SCORE.SYSTEM.DIHEDRAL>
0

>  <SCORE.SYSTEM.SOLV>
0

>  <SCORE.SYSTEM.norm>
0

>  <SCORE.heavy>
27

>  <SCORE.norm>
-0.444853

>  <RMSD>
5.884

$$$$
ligand
 OpenBabel11021811503D
libRbt.so/2013.1/901 2013/11/27
 27 29  0  0  0  0  0  0  0  0999 V2000
   49.3208  -33.0423 -104.7651 N   0  0  0  0  0  0  0  0  0  0  0  0
   47.9271  -32.7616 -104.4025 C   0  0  2  0  0  0  0  0  0  0  0  0
   47.0531  -32.8692 -105.6342 C   0  0  0  0  0  0  0  0  0  0  0  0
   47.4375  -33.5002 -106.6073 O   0  0  0  0  0  0  0  0  0  0  0  0
   47.7766  -31.3543 -103.8090 C   0  0  0  0  0  0  0  0  0  0  0  0
   48.6145  -31.2066 -102.5469 C   0  0  0  0  0  0  0  0  0  0  0  0
   48.2129  -29.6999 -101.5815 S   0  0  2  0  0  0  0  0  0  0  0  0
   49.5890  -29.5583 -100.3958 C   0  0  0  0  0  0  0  0  0  0  0  0
   47.0047  -30.4869 -100.5187 C   0  0  0  0  0  0  0  0  0  0  0  0
   45.5843  -30.0846 -100.8144 C   0  0  1  0  0  0  0  0  0  0  0  0
   45.5306  -28.6483 -100.8489 O   0  0  0  0  0  0  0  0  0  0  0  0
   45.3992  -30.5447 -102.2042 C   0  0  1  0  0  0  0  0  0  0  0  0
   44.7430  -31.8116 -102.2061 O   0  0  0  0  0  0  0  0  0  0  0  0
   44.4917  -29.4981 -102.7727 C   0  0  1  0  0  0  0  0  0  0  0  0
   43.1126  -29.8397 -102.5221 O   0  0  0  0  0  0  0  0  0  0  0  0
   44.8499  -28.1720 -102.0371 C   0  0  2  0  0  0  0  0  0  0  0  0
   45.9477  -32.3566 -105.6528 O   0  0  0  0  0  0  0  0  0  0  0  0
   45.9577  -24.7348 -105.9303 N   0  0  0  0  0  0  0  0  0  0  0  0
   44.8042  -25.4197 -105.7343 C   0  0  0  0  0  0  0  0  0  0  0  0
   44.6352  -26.2368 -104.6738 N   0  0  0  0  0  0  0  0  0  0  0  0
   45.6453  -26.4675 -103.8193 C   0  0  0  0  0  0  0  0  0  0  0  0
   46.9051  -25.7910 -104.0133 C   0  0  0  0  0  0  0  0  0  0  0  0
   47.0224  -24.8932 -105.1159 C   0  0  0  0  0  0  0  0  0  0  0  0
   48.1953  -24.2060 -105.3542 N   0  0  0  0  0  0  0  0  0  0  0  0
   47.7294  -26.1967 -103.0403 N   0  0  0  0  0  0  0  0  0  0  0  0
   47.1042  -27.0514 -102.2866 C   0  0  0  0  0  0  0  0  0  0  0  0
   45.8122  -27.2535 -102.7127 N   0  0  0  0  0  0  0  0  0  0  0  0
  2  1  1  6  0  0  0
  2  3  1  0  0  0  0
  2  5  1  0  0  0  0
  3  4  1  0  0  0  0
  3 17  1  0  0  0  0
  5  6  1  0  0  0  0
  7  6  1  6  0  0  0
  7  8  1  0  0  0  0
  7  9  1  0  0  0  0
 10  9  1  6  0  0  0
 10 11  1  0  0  0  0
 10 12  1  0  0  0  0
 11 16  1  0  0  0  0
 12 13  1  1  0  0  0
 12 14  1  0  0  0  0
 14 15  1  1  0  0  0
 14 16  1  0  0  0  0
 16 27  1  6  0  0  0
 18 19  2  0  0  0  0
 18 23  1  0  0  0  0
 19 20  1  0  0  0  0
 20 21  2  0  0  0  0
 21 22  1  0  0  0  0
 21 27  1  0  0  0  0
 22 23  2  0  0  0  0
 22 25  1  0  0  0  0
 23 24  1  0  0  0  0
 25 26  2  0  0  0  0
 26 27  1  0  0  0  0
M  END
>  <CHROM.1>
20.66386876,-60.47649534,-167.39737074,-166.74311929,-108.09387520,-50.72888802
-175.02611915,46.60395097,-29.15920905,-103.29963769,-0.57600113,1.37772861
-1.07223890

>  <Name>
ligand

>  <RI>
0

>  <Rbt.Current_Directory>
/home/itssahil/PROJECTS/Mol_Feturizer/New_Systems/rnas/4L81

>  <Rbt.Executable>
rbdock ($Id: //depot/dev/client3/rdock/2013.1/src/exe/rbdock.cxx#4 $)

>  <Rbt.Library>
libRbt.so (2013.1, Build901 2013/11/27)

>  <Rbt.Parameter_File>
/export/apps/rDock/src/rDock_2013.1_src/data/scripts/dock_solv.prm

>  <Rbt.Receptor>
prm/pocket_docking_4.prm

>  <SCORE>
-12.9678

>  <SCORE.INTER>
-13.3464

>  <SCORE.INTER.CONST>
1

>  <SCORE.INTER.POLAR>
0

>  <SCORE.INTER.ROT>
7

>  <SCORE.INTER.SOLV>
7.98065

>  <SCORE.INTER.VDW>
-19.8245

>  <SCORE.INTER.norm>
-0.494309

>  <SCORE.INTRA>
0.371131

>  <SCORE.INTRA.DIHEDRAL>
0.480698

>  <SCORE.INTRA.DIHEDRAL.0>
8.34559

>  <SCORE.INTRA.POLAR>
0

>  <SCORE.INTRA.POLAR.0>
0

>  <SCORE.INTRA.REPUL>
0

>  <SCORE.INTRA.REPUL.0>
0

>  <SCORE.INTRA.SOLV>
0.104448

>  <SCORE.INTRA.SOLV.lig_0>
-48.829

>  <SCORE.INTRA.VDW>
0.0785581

>  <SCORE.INTRA.VDW.0>
-1.77092

>  <SCORE.INTRA.norm>
0.0137456

>  <SCORE.RESTR>
0.00746409

>  <SCORE.RESTR.CAVITY>
0.00746409

>  <SCORE.RESTR.norm>
0.000276448

>  <SCORE.SYSTEM>
0

>  <SCORE.SYSTEM.CONST>
0

>  <SCORE.SYSTEM.DIHEDRAL>
0

>  <SCORE.SYSTEM.SOLV>
0

>  <SCORE.SYSTEM.norm>
0

>  <SCORE.heavy>
27

>  <SCORE.norm>
-0.480287

>  <RMSD>
5.904

$$$$
ligand
 OpenBabel11021811503D
libRbt.so/2013.1/901 2013/11/27
 27 29  0  0  0  0  0  0  0  0999 V2000
   49.2066  -33.1497 -105.0268 N   0  0  0  0  0  0  0  0  0  0  0  0
   47.7919  -32.8112 -104.8355 C   0  0  2  0  0  0  0  0  0  0  0  0
   47.1131  -32.6961 -106.1841 C   0  0  0  0  0  0  0  0  0  0  0  0
   45.9963  -32.2082 -106.2702 O   0  0  0  0  0  0  0  0  0  0  0  0
   47.6317  -31.4823 -104.0847 C   0  0  0  0  0  0  0  0  0  0  0  0
   48.2155  -31.5792 -102.6822 C   0  0  0  0  0  0  0  0  0  0  0  0
   48.0883  -30.0148 -101.7337 S   0  0  2  0  0  0  0  0  0  0  0  0
   49.5612  -30.0305 -100.6613 C   0  0  0  0  0  0  0  0  0  0  0  0
   46.8777  -30.6175 -100.5590 C   0  0  0  0  0  0  0  0  0  0  0  0
   45.4718  -30.1654 -100.8520 C   0  0  1  0  0  0  0  0  0  0  0  0
   45.4662  -28.7279 -100.8743 O   0  0  0  0  0  0  0  0  0  0  0  0
   45.2726  -30.6073 -102.2458 C   0  0  1  0  0  0  0  0  0  0  0  0
   44.5745  -31.8515 -102.2589 O   0  0  0  0  0  0  0  0  0  0  0  0
   44.4011  -29.5262 -102.8059 C   0  0  1  0  0  0  0  0  0  0  0  0
   43.0111  -29.8237 -102.5590 O   0  0  0  0  0  0  0  0  0  0  0  0
   44.8027  -28.2191 -102.0588 C   0  0  2  0  0  0  0  0  0  0  0  0
   47.6870  -33.0578 -107.1963 O   0  0  0  0  0  0  0  0  0  0  0  0
   46.0160  -24.7559 -105.8971 N   0  0  0  0  0  0  0  0  0  0  0  0
   44.8374  -25.3972 -105.7033 C   0  0  0  0  0  0  0  0  0  0  0  0
   44.6444  -26.2269 -104.6567 N   0  0  0  0  0  0  0  0  0  0  0  0
   45.6515  -26.5145 -103.8161 C   0  0  0  0  0  0  0  0  0  0  0  0
   46.9360  -25.8859 -104.0091 C   0  0  0  0  0  0  0  0  0  0  0  0
   47.0803  -24.9727 -105.0957 C   0  0  0  0  0  0  0  0  0  0  0  0
   48.2781  -24.3291 -105.3320 N   0  0  0  0  0  0  0  0  0  0  0  0
   47.7514  -26.3430 -103.0515 N   0  0  0  0  0  0  0  0  0  0  0  0
   47.0985  -27.1859 -102.3082 C   0  0  0  0  0  0  0  0  0  0  0  0
   45.7958  -27.3275 -102.7260 N   0  0  0  0  0  0  0  0  0  0  0  0
  2  1  1  6  0  0  0
  2  3  1  0  0  0  0
  2  5  1  0  0  0  0
  3  4  1  0  0  0  0
  3 17  1  0  0  0  0
  5  6  1  0  0  0  0
  7  6  1  6  0  0  0
  7  8  1  0  0  0  0
  7  9  1  0  0  0  0
 10  9  1  6  0  0  0
 10 11  1  0  0  0  0
 10 12  1  0  0  0  0
 11 16  1  0  0  0  0
 12 13  1  1  0  0  0
 12 14  1  0  0  0  0
 14 15  1  1  0  0  0
 14 16  1  0  0  0  0
 16 27  1  6  0  0  0
 18 19  2  0  0  0  0
 18 23  1  0  0  0  0
 19 20  1  0  0  0  0
 20 21  2  0  0  0  0
 21 22  1  0  0  0  0
 21 27  1  0  0  0  0
 22 23  2  0  0  0  0
 22 25  1  0  0  0  0
 23 24  1  0  0  0  0
 25 26  2  0  0  0  0
 26 27  1  0  0  0  0
M  END
>  <CHROM.1>
-167.84595972,-63.09771663,178.91326177,-148.19408681,-101.41989130,-57.55299405
-174.11935337,46.55708447,-29.23640369,-103.43509992,-0.94815421,1.27675330
-0.64124435

>  <Name>
ligand

>  <RI>
0

>  <Rbt.Current_Directory>
/home/itssahil/PROJECTS/Mol_Feturizer/New_Systems/rnas/4L81

>  <Rbt.Executable>
rbdock ($Id: //depot/dev/client3/rdock/2013.1/src/exe/rbdock.cxx#4 $)

>  <Rbt.Library>
libRbt.so (2013.1, Build901 2013/11/27)

>  <Rbt.Parameter_File>
/export/apps/rDock/src/rDock_2013.1_src/data/scripts/dock_solv.prm

>  <Rbt.Receptor>
prm/pocket_docking_5.prm

>  <SCORE>
-13.3323

>  <SCORE.INTER>
-13.8983

>  <SCORE.INTER.CONST>
1

>  <SCORE.INTER.POLAR>
0

>  <SCORE.INTER.ROT>
7

>  <SCORE.INTER.SOLV>
8.00438

>  <SCORE.INTER.VDW>
-20.2004

>  <SCORE.INTER.norm>
-0.514753

>  <SCORE.INTRA>
0.566024

>  <SCORE.INTRA.DIHEDRAL>
0.991871

>  <SCORE.INTRA.DIHEDRAL.0>
8.34559

>  <SCORE.INTRA.POLAR>
0

>  <SCORE.INTRA.POLAR.0>
0

>  <SCORE.INTRA.REPUL>
0

>  <SCORE.INTRA.REPUL.0>
0

>  <SCORE.INTRA.SOLV>
0.0242858

>  <SCORE.INTRA.SOLV.lig_0>
-48.829

>  <SCORE.INTRA.VDW>
0.057945

>  <SCORE.INTRA.VDW.0>
-1.77092

>  <SCORE.INTRA.norm>
0.0209638

>  <SCORE.RESTR>
0

>  <SCORE.RESTR.CAVITY>
0

>  <SCORE.RESTR.norm>
0

>  <SCORE.SYSTEM>
0

>  <SCORE.SYSTEM.CONST>
0

>  <SCORE.SYSTEM.DIHEDRAL>
0

>  <SCORE.SYSTEM.SOLV>
0

>  <SCORE.SYSTEM.norm>
0

>  <SCORE.heavy>
27

>  <SCORE.norm>
-0.49379

>  <RMSD>
5.930

$$$$
ligand
 OpenBabel11021811503D
libRbt.so/2013.1/901 2013/11/27
 27 29  0  0  0  0  0  0  0  0999 V2000
   48.5306  -28.1449 -102.8332 N   0  0  0  0  0  0  0  0  0  0  0  0
   49.7339  -28.6299 -102.1481 C   0  0  2  0  0  0  0  0  0  0  0  0
   50.7019  -29.1948 -103.1662 C   0  0  0  0  0  0  0  0  0  0  0  0
   51.8675  -29.3961 -102.8602 O   0  0  0  0  0  0  0  0  0  0  0  0
   49.3932  -29.7242 -101.1273 C   0  0  0  0  0  0  0  0  0  0  0  0
   48.9738  -31.0078 -101.8296 C   0  0  0  0  0  0  0  0  0  0  0  0
   47.4129  -30.8396 -102.7776 S   0  0  2  0  0  0  0  0  0  0  0  0
   46.1294  -30.7111 -101.4909 C   0  0  0  0  0  0  0  0  0  0  0  0
   47.2515  -32.5812 -103.1641 C   0  0  0  0  0  0  0  0  0  0  0  0
   47.7421  -32.9444 -104.5405 C   0  0  1  0  0  0  0  0  0  0  0  0
   47.0051  -32.1593 -105.4930 O   0  0  0  0  0  0  0  0  0  0  0  0
   49.1214  -32.4198 -104.5424 C   0  0  1  0  0  0  0  0  0  0  0  0
   50.0354  -33.4743 -104.2456 O   0  0  0  0  0  0  0  0  0  0  0  0
   49.2962  -31.9761 -105.9618 C   0  0  1  0  0  0  0  0  0  0  0  0
   49.7587  -33.0728 -106.7771 O   0  0  0  0  0  0  0  0  0  0  0  0
   47.8885  -31.5150 -106.4451 C   0  0  2  0  0  0  0  0  0  0  0  0
   50.3197  -29.4837 -104.2866 O   0  0  0  0  0  0  0  0  0  0  0  0
   48.1238  -26.6402 -108.5378 N   0  0  0  0  0  0  0  0  0  0  0  0
   48.6465  -27.7842 -109.0438 C   0  0  0  0  0  0  0  0  0  0  0  0
   48.4787  -28.9739 -108.4295 N   0  0  0  0  0  0  0  0  0  0  0  0
   47.8582  -29.0492 -107.2408 C   0  0  0  0  0  0  0  0  0  0  0  0
   47.3218  -27.8493 -106.6450 C   0  0  0  0  0  0  0  0  0  0  0  0
   47.4732  -26.6213 -107.3552 C   0  0  0  0  0  0  0  0  0  0  0  0
   46.9758  -25.4381 -106.8480 N   0  0  0  0  0  0  0  0  0  0  0  0
   46.7678  -28.1972 -105.4776 N   0  0  0  0  0  0  0  0  0  0  0  0
   46.9207  -29.4760 -105.3024 C   0  0  0  0  0  0  0  0  0  0  0  0
   47.5796  -30.0577 -106.3603 N   0  0  0  0  0  0  0  0  0  0  0  0
  2  1  1  6  0  0  0
  2  3  1  0  0  0  0
  2  5  1  0  0  0  0
  3  4  1  0  0  0  0
  3 17  1  0  0  0  0
  5  6  1  0  0  0  0
  7  6  1  1  0  0  0
  7  8  1  0  0  0  0
  7  9  1  0  0  0  0
 10  9  1  1  0  0  0
 10 11  1  0  0  0  0
 10 12  1  0  0  0  0
 11 16  1  0  0  0  0
 12 13  1  6  0  0  0
 12 14  1  0  0  0  0
 14 15  1  6  0  0  0
 14 16  1  0  0  0  0
 16 27  1  1  0  0  0
 18 19  2  0  0  0  0
 18 23  1  0  0  0  0
 19 20  1  0  0  0  0
 20 21  2  0  0  0  0
 21 22  1  0  0  0  0
 21 27  1  0  0  0  0
 22 23  2  0  0  0  0
 22 25  1  0  0  0  0
 23 24  1  0  0  0  0
 25 26  2  0  0  0  0
 26 27  1  0  0  0  0
M  END
>  <CHROM.1>
164.73699119,70.38851951,-65.13169004,-71.25008696,-98.41216483,-57.71931145
-161.69834983,48.40533544,-30.01725830,-104.83687408,-0.31278200,-1.40438644
0.37318158

>  <Name>
ligand

>  <RI>
0

>  <Rbt.Current_Directory>
/home/itssahil/PROJECTS/Mol_Feturizer/New_Systems/rnas/4L81

>  <Rbt.Executable>
rbdock ($Id: //depot/dev/client3/rdock/2013.1/src/exe/rbdock.cxx#4 $)

>  <Rbt.Library>
libRbt.so (2013.1, Build901 2013/11/27)

>  <Rbt.Parameter_File>
/export/apps/rDock/src/rDock_2013.1_src/data/scripts/dock_solv.prm

>  <Rbt.Receptor>
prm/pocket_docking_8.prm

>  <SCORE>
-10.3794

>  <SCORE.INTER>
-9.80745

>  <SCORE.INTER.CONST>
1

>  <SCORE.INTER.POLAR>
0

>  <SCORE.INTER.ROT>
7

>  <SCORE.INTER.SOLV>
6.05828

>  <SCORE.INTER.VDW>
-16.8244

>  <SCORE.INTER.norm>
-0.363239

>  <SCORE.INTRA>
-0.571952

>  <SCORE.INTRA.DIHEDRAL>
-2.25062

>  <SCORE.INTRA.DIHEDRAL.0>
8.34559

>  <SCORE.INTRA.POLAR>
0

>  <SCORE.INTRA.POLAR.0>
0

>  <SCORE.INTRA.REPUL>
0

>  <SCORE.INTRA.REPUL.0>
0

>  <SCORE.INTRA.SOLV>
2.64672

>  <SCORE.INTRA.SOLV.lig_0>
-48.829

>  <SCORE.INTRA.VDW>
-0.770006

>  <SCORE.INTRA.VDW.0>
-1.77092

>  <SCORE.INTRA.norm>
-0.0211834

>  <SCORE.RESTR>
0

>  <SCORE.RESTR.CAVITY>
0

>  <SCORE.RESTR.norm>
0

>  <SCORE.SYSTEM>
0

>  <SCORE.SYSTEM.CONST>
0

>  <SCORE.SYSTEM.DIHEDRAL>
0

>  <SCORE.SYSTEM.SOLV>
0

>  <SCORE.SYSTEM.norm>
0

>  <SCORE.heavy>
27

>  <SCORE.norm>
-0.384422

>  <RMSD>
5.964

$$$$
ligand
 OpenBabel11021811503D
libRbt.so/2013.1/901 2013/11/27
 27 29  0  0  0  0  0  0  0  0999 V2000
   44.9930  -30.9218 -103.8430 N   0  0  0  0  0  0  0  0  0  0  0  0
   44.5799  -31.2112 -102.4652 C   0  0  2  0  0  0  0  0  0  0  0  0
   43.0814  -31.0345 -102.3394 C   0  0  0  0  0  0  0  0  0  0  0  0
   42.4680  -31.6046 -101.4497 O   0  0  0  0  0  0  0  0  0  0  0  0
   45.2751  -30.2771 -101.4654 C   0  0  0  0  0  0  0  0  0  0  0  0
   46.4820  -30.9591 -100.8366 C   0  0  0  0  0  0  0  0  0  0  0  0
   47.5114  -29.8259  -99.8269 S   0  0  2  0  0  0  0  0  0  0  0  0
   46.3080  -28.6605  -99.1104 C   0  0  0  0  0  0  0  0  0  0  0  0
   48.0823  -28.8313 -101.2030 C   0  0  0  0  0  0  0  0  0  0  0  0
   48.9517  -29.5839 -102.1749 C   0  0  1  0  0  0  0  0  0  0  0  0
   48.8989  -28.8976 -103.4371 O   0  0  0  0  0  0  0  0  0  0  0  0
   50.3074  -29.3646 -101.6347 C   0  0  1  0  0  0  0  0  0  0  0  0
   50.6979  -30.4897 -100.8492 O   0  0  0  0  0  0  0  0  0  0  0  0
   51.1419  -29.2933 -102.8759 C   0  0  1  0  0  0  0  0  0  0  0  0
   51.5620  -30.6145 -103.2749 O   0  0  0  0  0  0  0  0  0  0  0  0
   50.2267  -28.6751 -103.9751 C   0  0  2  0  0  0  0  0  0  0  0  0
   42.4810  -30.2978 -103.1021 O   0  0  0  0  0  0  0  0  0  0  0  0
   49.6189  -24.4650 -107.1539 N   0  0  0  0  0  0  0  0  0  0  0  0
   49.3928  -25.7678 -107.4535 C   0  0  0  0  0  0  0  0  0  0  0  0
   49.5469  -26.7444 -106.5351 N   0  0  0  0  0  0  0  0  0  0  0  0
   50.0184  -26.4636 -105.3094 C   0  0  0  0  0  0  0  0  0  0  0  0
   50.3117  -25.0945 -104.9604 C   0  0  0  0  0  0  0  0  0  0  0  0
   50.0819  -24.0867 -105.9437 C   0  0  0  0  0  0  0  0  0  0  0  0
   50.3317  -22.7566 -105.6735 N   0  0  0  0  0  0  0  0  0  0  0  0
   50.7658  -25.0926 -103.7016 N   0  0  0  0  0  0  0  0  0  0  0  0
   50.7857  -26.3143 -103.2582 C   0  0  0  0  0  0  0  0  0  0  0  0
   50.3288  -27.2039 -104.2023 N   0  0  0  0  0  0  0  0  0  0  0  0
  2  1  1  6  0  0  0
  2  3  1  0  0  0  0
  2  5  1  0  0  0  0
  3  4  1  0  0  0  0
  3 17  1  0  0  0  0
  5  6  1  0  0  0  0
  7  6  1  6  0  0  0
  7  8  1  0  0  0  0
  7  9  1  0  0  0  0
 10  9  1  1  0  0  0
 10 11  1  0  0  0  0
 10 12  1  0  0  0  0
 11 16  1  0  0  0  0
 12 13  1  1  0  0  0
 12 14  1  0  0  0  0
 14 15  1  6  0  0  0
 14 16  1  0  0  0  0
 16 27  1  1  0  0  0
 18 19  2  0  0  0  0
 18 23  1  0  0  0  0
 19 20  1  0  0  0  0
 20 21  2  0  0  0  0
 21 22  1  0  0  0  0
 21 27  1  0  0  0  0
 22 23  2  0  0  0  0
 22 25  1  0  0  0  0
 23 24  1  0  0  0  0
 25 26  2  0  0  0  0
 26 27  1  0  0  0  0
M  END
>  <CHROM.1>
156.88446064,-98.16084767,171.21369453,33.51634343,-65.35085391,157.38398738
-90.16249868,48.20602781,-28.48005236,-103.02830425,2.28806677,0.21963013
2.30177904

>  <Name>
ligand

>  <RI>
0

>  <Rbt.Current_Directory>
/home/itssahil/PROJECTS/Mol_Feturizer/New_Systems/rnas/4L81

>  <Rbt.Executable>
rbdock ($Id: //depot/dev/client3/rdock/2013.1/src/exe/rbdock.cxx#4 $)

>  <Rbt.Library>
libRbt.so (2013.1, Build901 2013/11/27)

>  <Rbt.Parameter_File>
/export/apps/rDock/src/rDock_2013.1_src/data/scripts/dock_solv.prm

>  <Rbt.Receptor>
prm/pocket_docking_5.prm

>  <SCORE>
-16.278

>  <SCORE.INTER>
-17.379

>  <SCORE.INTER.CONST>
1

>  <SCORE.INTER.POLAR>
0

>  <SCORE.INTER.ROT>
7

>  <SCORE.INTER.SOLV>
12.3798

>  <SCORE.INTER.VDW>
-23.9793

>  <SCORE.INTER.norm>
-0.643667

>  <SCORE.INTRA>
1.09943

>  <SCORE.INTRA.DIHEDRAL>
1.59706

>  <SCORE.INTRA.DIHEDRAL.0>
8.34559

>  <SCORE.INTRA.POLAR>
0

>  <SCORE.INTRA.POLAR.0>
0

>  <SCORE.INTRA.REPUL>
0

>  <SCORE.INTRA.REPUL.0>
0

>  <SCORE.INTRA.SOLV>
-0.607296

>  <SCORE.INTRA.SOLV.lig_0>
-48.829

>  <SCORE.INTRA.VDW>
0.604551

>  <SCORE.INTRA.VDW.0>
-1.77092

>  <SCORE.INTRA.norm>
0.0407197

>  <SCORE.RESTR>
0.00156423

>  <SCORE.RESTR.CAVITY>
0.00156423

>  <SCORE.RESTR.norm>
5.79343e-05

>  <SCORE.SYSTEM>
0

>  <SCORE.SYSTEM.CONST>
0

>  <SCORE.SYSTEM.DIHEDRAL>
0

>  <SCORE.SYSTEM.SOLV>
0

>  <SCORE.SYSTEM.norm>
0

>  <SCORE.heavy>
27

>  <SCORE.norm>
-0.60289

>  <RMSD>
5.994

$$$$
ligand
 OpenBabel11021811503D
libRbt.so/2013.1/901 2013/11/27
 27 29  0  0  0  0  0  0  0  0999 V2000
   46.4257  -32.5367 -105.2345 N   0  0  0  0  0  0  0  0  0  0  0  0
   46.4734  -31.8340 -103.9474 C   0  0  2  0  0  0  0  0  0  0  0  0
   47.6123  -32.3829 -103.1141 C   0  0  0  0  0  0  0  0  0  0  0  0
   47.9614  -31.8064 -102.0950 O   0  0  0  0  0  0  0  0  0  0  0  0
   45.1620  -32.0045 -103.1686 C   0  0  0  0  0  0  0  0  0  0  0  0
   44.6610  -30.6632 -102.6520 C   0  0  0  0  0  0  0  0  0  0  0  0
   45.9456  -29.7024 -101.7630 S   0  0  2  0  0  0  0  0  0  0  0  0
   45.5872  -30.0127 -100.0038 C   0  0  0  0  0  0  0  0  0  0  0  0
   45.1343  -28.1152 -101.9404 C   0  0  0  0  0  0  0  0  0  0  0  0
   45.6806  -27.2781 -103.0663 C   0  0  1  0  0  0  0  0  0  0  0  0
   47.1008  -27.1579 -102.8779 O   0  0  0  0  0  0  0  0  0  0  0  0
   45.4856  -28.1482 -104.2420 C   0  0  1  0  0  0  0  0  0  0  0  0
   44.2877  -27.7748 -104.9211 O   0  0  0  0  0  0  0  0  0  0  0  0
   46.6765  -27.8197 -105.0881 C   0  0  1  0  0  0  0  0  0  0  0  0
   46.3935  -26.6862 -105.9346 O   0  0  0  0  0  0  0  0  0  0  0  0
   47.8246  -27.4649 -104.0961 C   0  0  2  0  0  0  0  0  0  0  0  0
   48.1668  -33.4197 -103.4341 O   0  0  0  0  0  0  0  0  0  0  0  0
   50.3715  -30.3033 -100.4008 N   0  0  0  0  0  0  0  0  0  0  0  0
   49.5255  -29.2618 -100.2070 C   0  0  0  0  0  0  0  0  0  0  0  0
   48.9066  -28.6488 -101.2376 N   0  0  0  0  0  0  0  0  0  0  0  0
   49.1798  -28.9972 -102.5055 C   0  0  0  0  0  0  0  0  0  0  0  0
   50.1062  -30.0740 -102.7597 C   0  0  0  0  0  0  0  0  0  0  0  0
   50.6958  -30.7314 -101.6392 C   0  0  0  0  0  0  0  0  0  0  0  0
   51.5824  -31.7751 -101.8101 N   0  0  0  0  0  0  0  0  0  0  0  0
   50.2023  -30.2120 -104.0873 N   0  0  0  0  0  0  0  0  0  0  0  0
   49.4402  -29.3283 -104.6598 C   0  0  0  0  0  0  0  0  0  0  0  0
   48.7780  -28.5546 -103.7354 N   0  0  0  0  0  0  0  0  0  0  0  0
  2  1  1  6  0  0  0
  2  3  1  0  0  0  0
  2  5  1  0  0  0  0
  3  4  1  0  0  0  0
  3 17  1  0  0  0  0
  5  6  1  0  0  0  0
  7  6  1  6  0  0  0
  7  8  1  0  0  0  0
  7  9  1  0  0  0  0
 10  9  1  1  0  0  0
 10 11  1  0  0  0  0
 10 12  1  0  0  0  0
 11 16  1  0  0  0  0
 12 13  1  6  0  0  0
 12 14  1  0  0  0  0
 14 15  1  6  0  0  0
 14 16  1  0  0  0  0
 16 27  1  1  0  0  0
 18 19  2  0  0  0  0
 18 23  1  0  0  0  0
 19 20  1  0  0  0  0
 20 21  2  0  0  0  0
 21 22  1  0  0  0  0
 21 27  1  0  0  0  0
 22 23  2  0  0  0  0
 22 25  1  0  0  0  0
 23 24  1  0  0  0  0
 25 26  2  0  0  0  0
 26 27  1  0  0  0  0
M  END
>  <CHROM.1>
168.75999579,-131.74445973,-50.03023411,-99.49461129,-99.03903769,-54.18774936
-14.81088373,47.46170774,-29.72296830,-102.94517413,2.49455464,-0.28596206
-0.21820801

>  <Name>
ligand

>  <RI>
0

>  <Rbt.Current_Directory>
/home/itssahil/PROJECTS/Mol_Feturizer/New_Systems/rnas/4L81

>  <Rbt.Executable>
rbdock ($Id: //depot/dev/client3/rdock/2013.1/src/exe/rbdock.cxx#4 $)

>  <Rbt.Library>
libRbt.so (2013.1, Build901 2013/11/27)

>  <Rbt.Parameter_File>
/export/apps/rDock/src/rDock_2013.1_src/data/scripts/dock_solv.prm

>  <Rbt.Receptor>
prm/pocket_docking_4.prm

>  <SCORE>
-13.3376

>  <SCORE.INTER>
-11.5948

>  <SCORE.INTER.CONST>
1

>  <SCORE.INTER.POLAR>
0

>  <SCORE.INTER.ROT>
7

>  <SCORE.INTER.SOLV>
12.7192

>  <SCORE.INTER.VDW>
-20.2363

>  <SCORE.INTER.norm>
-0.429438

>  <SCORE.INTRA>
-1.74281

>  <SCORE.INTRA.DIHEDRAL>
5.20556

>  <SCORE.INTRA.DIHEDRAL.0>
8.34559

>  <SCORE.INTRA.POLAR>
0

>  <SCORE.INTRA.POLAR.0>
0

>  <SCORE.INTRA.REPUL>
0

>  <SCORE.INTRA.REPUL.0>
0

>  <SCORE.INTRA.SOLV>
-0.0464311

>  <SCORE.INTRA.SOLV.lig_0>
-48.829

>  <SCORE.INTRA.VDW>
-4.32238

>  <SCORE.INTRA.VDW.0>
-1.77092

>  <SCORE.INTRA.norm>
-0.0645485

>  <SCORE.RESTR>
0

>  <SCORE.RESTR.CAVITY>
0

>  <SCORE.RESTR.norm>
0

>  <SCORE.SYSTEM>
0

>  <SCORE.SYSTEM.CONST>
0

>  <SCORE.SYSTEM.DIHEDRAL>
0

>  <SCORE.SYSTEM.SOLV>
0

>  <SCORE.SYSTEM.norm>
0

>  <SCORE.heavy>
27

>  <SCORE.norm>
-0.493987

>  <RMSD>
6.003

$$$$
ligand
 OpenBabel11021811503D
libRbt.so/2013.1/901 2013/11/27
 27 29  0  0  0  0  0  0  0  0999 V2000
   47.8029  -25.4082 -102.6720 N   0  0  0  0  0  0  0  0  0  0  0  0
   48.4224  -26.7356 -102.5893 C   0  0  2  0  0  0  0  0  0  0  0  0
   48.7523  -27.2269 -103.9830 C   0  0  0  0  0  0  0  0  0  0  0  0
   49.6070  -28.0846 -104.1460 O   0  0  0  0  0  0  0  0  0  0  0  0
   47.4866  -27.7481 -101.9151 C   0  0  0  0  0  0  0  0  0  0  0  0
   46.0786  -27.6464 -102.4844 C   0  0  0  0  0  0  0  0  0  0  0  0
   44.9750  -29.0054 -101.9380 S   0  0  2  0  0  0  0  0  0  0  0  0
   45.5564  -29.3936 -100.2555 C   0  0  0  0  0  0  0  0  0  0  0  0
   45.8282  -30.2989 -102.8367 C   0  0  0  0  0  0  0  0  0  0  0  0
   45.1457  -30.6979 -104.1180 C   0  0  1  0  0  0  0  0  0  0  0  0
   44.3105  -29.6035 -104.5324 O   0  0  0  0  0  0  0  0  0  0  0  0
   46.2654  -30.7575 -105.0773 C   0  0  1  0  0  0  0  0  0  0  0  0
   46.7028  -32.1080 -105.2199 O   0  0  0  0  0  0  0  0  0  0  0  0
   45.6268  -30.2901 -106.3485 C   0  0  1  0  0  0  0  0  0  0  0  0
   45.0269  -31.4009 -107.0467 O   0  0  0  0  0  0  0  0  0  0  0  0
   44.5243  -29.2725 -105.9276 C   0  0  2  0  0  0  0  0  0  0  0  0
   48.1462  -26.7960 -104.9484 O   0  0  0  0  0  0  0  0  0  0  0  0
   47.5964  -25.3304 -107.7221 N   0  0  0  0  0  0  0  0  0  0  0  0
   47.6951  -26.6520 -108.0075 C   0  0  0  0  0  0  0  0  0  0  0  0
   46.8184  -27.5520 -107.5151 N   0  0  0  0  0  0  0  0  0  0  0  0
   45.8647  -27.1752 -106.6479 C   0  0  0  0  0  0  0  0  0  0  0  0
   45.7488  -25.7837 -106.2837 C   0  0  0  0  0  0  0  0  0  0  0  0
   46.6616  -24.8576 -106.8708 C   0  0  0  0  0  0  0  0  0  0  0  0
   46.6008  -23.5111 -106.5742 N   0  0  0  0  0  0  0  0  0  0  0  0
   44.7365  -25.6821 -105.4144 N   0  0  0  0  0  0  0  0  0  0  0  0
   44.2362  -26.8641 -105.2093 C   0  0  0  0  0  0  0  0  0  0  0  0
   44.8857  -27.8250 -105.9484 N   0  0  0  0  0  0  0  0  0  0  0  0
  2  1  1  6  0  0  0
  2  3  1  0  0  0  0
  2  5  1  0  0  0  0
  3  4  1  0  0  0  0
  3 17  1  0  0  0  0
  5  6  1  0  0  0  0
  7  6  1  6  0  0  0
  7  8  1  0  0  0  0
  7  9  1  0  0  0  0
 10  9  1  1  0  0  0
 10 11  1  0  0  0  0
 10 12  1  0  0  0  0
 11 16  1  0  0  0  0
 12 13  1  6  0  0  0
 12 14  1  0  0  0  0
 14 15  1  1  0  0  0
 14 16  1  0  0  0  0
 16 27  1  1  0  0  0
 18 19  2  0  0  0  0
 18 23  1  0  0  0  0
 19 20  1  0  0  0  0
 20 21  2  0  0  0  0
 21 22  1  0  0  0  0
 21 27  1  0  0  0  0
 22 23  2  0  0  0  0
 22 25  1  0  0  0  0
 23 24  1  0  0  0  0
 25 26  2  0  0  0  0
 26 27  1  0  0  0  0
M  END
>  <CHROM.1>
157.94536684,46.27557460,170.25223695,32.68898639,-101.12243142,22.44427446
136.17266638,46.28236274,-28.03744527,-104.71732304,-0.94766927,1.14630334
1.93270716

>  <Name>
ligand

>  <RI>
0

>  <Rbt.Current_Directory>
/home/itssahil/PROJECTS/Mol_Feturizer/New_Systems/rnas/4L81

>  <Rbt.Executable>
rbdock ($Id: //depot/dev/client3/rdock/2013.1/src/exe/rbdock.cxx#4 $)

>  <Rbt.Library>
libRbt.so (2013.1, Build901 2013/11/27)

>  <Rbt.Parameter_File>
/export/apps/rDock/src/rDock_2013.1_src/data/scripts/dock_solv.prm

>  <Rbt.Receptor>
prm/pocket_docking_4.prm

>  <SCORE>
-8.84694

>  <SCORE.INTER>
-8.9718

>  <SCORE.INTER.CONST>
1

>  <SCORE.INTER.POLAR>
0

>  <SCORE.INTER.ROT>
7

>  <SCORE.INTER.SOLV>
12.7829

>  <SCORE.INTER.VDW>
-18.5088

>  <SCORE.INTER.norm>
-0.332289

>  <SCORE.INTRA>
0.124858

>  <SCORE.INTRA.DIHEDRAL>
2.8391

>  <SCORE.INTRA.DIHEDRAL.0>
8.34559

>  <SCORE.INTRA.POLAR>
0

>  <SCORE.INTRA.POLAR.0>
0

>  <SCORE.INTRA.REPUL>
0

>  <SCORE.INTRA.REPUL.0>
0

>  <SCORE.INTRA.SOLV>
-0.332559

>  <SCORE.INTRA.SOLV.lig_0>
-48.829

>  <SCORE.INTRA.VDW>
-1.12841

>  <SCORE.INTRA.VDW.0>
-1.77092

>  <SCORE.INTRA.norm>
0.00462437

>  <SCORE.RESTR>
0

>  <SCORE.RESTR.CAVITY>
0

>  <SCORE.RESTR.norm>
0

>  <SCORE.SYSTEM>
0

>  <SCORE.SYSTEM.CONST>
0

>  <SCORE.SYSTEM.DIHEDRAL>
0

>  <SCORE.SYSTEM.SOLV>
0

>  <SCORE.SYSTEM.norm>
0

>  <SCORE.heavy>
27

>  <SCORE.norm>
-0.327665

>  <RMSD>
6.019

$$$$
ligand
 OpenBabel11021811503D
libRbt.so/2013.1/901 2013/11/27
 27 29  0  0  0  0  0  0  0  0999 V2000
   49.6663  -33.1618 -104.7406 N   0  0  0  0  0  0  0  0  0  0  0  0
   50.3925  -31.9421 -104.3696 C   0  0  2  0  0  0  0  0  0  0  0  0
   51.3482  -32.2483 -103.2357 C   0  0  0  0  0  0  0  0  0  0  0  0
   51.0973  -33.1463 -102.4461 O   0  0  0  0  0  0  0  0  0  0  0  0
   49.4307  -30.8332 -103.9217 C   0  0  0  0  0  0  0  0  0  0  0  0
   50.1756  -29.5224 -103.7125 C   0  0  0  0  0  0  0  0  0  0  0  0
   49.0897  -28.1505 -103.1629 S   0  0  2  0  0  0  0  0  0  0  0  0
   50.2293  -26.7437 -102.9577 C   0  0  0  0  0  0  0  0  0  0  0  0
   48.9854  -28.6803 -101.4549 C   0  0  0  0  0  0  0  0  0  0  0  0
   47.5771  -28.9231 -100.9808 C   0  0  1  0  0  0  0  0  0  0  0  0
   46.8248  -27.7171 -101.1966 O   0  0  0  0  0  0  0  0  0  0  0  0
   47.0730  -29.9116 -101.9537 C   0  0  1  0  0  0  0  0  0  0  0  0
   47.1838  -31.2237 -101.4046 O   0  0  0  0  0  0  0  0  0  0  0  0
   45.6304  -29.5314 -102.0823 C   0  0  1  0  0  0  0  0  0  0  0  0
   44.8448  -30.1929 -101.0691 O   0  0  0  0  0  0  0  0  0  0  0  0
   45.5716  -27.9884 -101.8733 C   0  0  2  0  0  0  0  0  0  0  0  0
   52.3892  -31.6253 -103.1212 O   0  0  0  0  0  0  0  0  0  0  0  0
   47.5319  -23.8597 -104.5769 N   0  0  0  0  0  0  0  0  0  0  0  0
   47.8714  -24.2687 -103.3298 C   0  0  0  0  0  0  0  0  0  0  0  0
   47.3237  -25.3672 -102.7692 N   0  0  0  0  0  0  0  0  0  0  0  0
   46.3516  -26.0456 -103.4003 C   0  0  0  0  0  0  0  0  0  0  0  0
   45.9297  -25.6209 -104.7133 C   0  0  0  0  0  0  0  0  0  0  0  0
   46.5742  -24.4872 -105.2918 C   0  0  0  0  0  0  0  0  0  0  0  0
   46.2266  -24.0331 -106.5478 N   0  0  0  0  0  0  0  0  0  0  0  0
   44.9589  -26.4529 -105.1085 N   0  0  0  0  0  0  0  0  0  0  0  0
   44.7449  -27.3274 -104.1711 C   0  0  0  0  0  0  0  0  0  0  0  0
   45.5790  -27.1319 -103.0951 N   0  0  0  0  0  0  0  0  0  0  0  0
  2  1  1  1  0  0  0
  2  3  1  0  0  0  0
  2  5  1  0  0  0  0
  3  4  1  0  0  0  0
  3 17  1  0  0  0  0
  5  6  1  0  0  0  0
  7  6  1  6  0  0  0
  7  8  1  0  0  0  0
  7  9  1  0  0  0  0
 10  9  1  6  0  0  0
 10 11  1  0  0  0  0
 10 12  1  0  0  0  0
 11 16  1  0  0  0  0
 12 13  1  1  0  0  0
 12 14  1  0  0  0  0
 14 15  1  1  0  0  0
 14 16  1  0  0  0  0
 16 27  1  6  0  0  0
 18 19  2  0  0  0  0
 18 23  1  0  0  0  0
 19 20  1  0  0  0  0
 20 21  2  0  0  0  0
 21 22  1  0  0  0  0
 21 27  1  0  0  0  0
 22 23  2  0  0  0  0
 22 25  1  0  0  0  0
 23 24  1  0  0  0  0
 25 26  2  0  0  0  0
 26 27  1  0  0  0  0
M  END
>  <CHROM.1>
-28.35975296,-172.68180956,-179.57003121,178.73197424,-122.36832079,-56.23695960
-16.97482472,47.91073278,-28.45853160,-103.16013045,-0.96947006,0.38967704
-0.42887185

>  <Name>
ligand

>  <RI>
0

>  <Rbt.Current_Directory>
/home/itssahil/PROJECTS/Mol_Feturizer/New_Systems/rnas/4L81

>  <Rbt.Executable>
rbdock ($Id: //depot/dev/client3/rdock/2013.1/src/exe/rbdock.cxx#4 $)

>  <Rbt.Library>
libRbt.so (2013.1, Build901 2013/11/27)

>  <Rbt.Parameter_File>
/export/apps/rDock/src/rDock_2013.1_src/data/scripts/dock_solv.prm

>  <Rbt.Receptor>
prm/pocket_docking_4.prm

>  <SCORE>
-13.5306

>  <SCORE.INTER>
-11.2673

>  <SCORE.INTER.CONST>
1

>  <SCORE.INTER.POLAR>
0

>  <SCORE.INTER.ROT>
7

>  <SCORE.INTER.SOLV>
9.74729

>  <SCORE.INTER.VDW>
-19.0273

>  <SCORE.INTER.norm>
-0.417306

>  <SCORE.INTRA>
-2.26331

>  <SCORE.INTRA.DIHEDRAL>
-0.186303

>  <SCORE.INTRA.DIHEDRAL.0>
8.34559

>  <SCORE.INTRA.POLAR>
0

>  <SCORE.INTRA.POLAR.0>
0

>  <SCORE.INTRA.REPUL>
0

>  <SCORE.INTRA.REPUL.0>
0

>  <SCORE.INTRA.SOLV>
-0.704024

>  <SCORE.INTRA.SOLV.lig_0>
-48.829

>  <SCORE.INTRA.VDW>
-1.81814

>  <SCORE.INTRA.VDW.0>
-1.77092

>  <SCORE.INTRA.norm>
-0.0838262

>  <SCORE.RESTR>
0

>  <SCORE.RESTR.CAVITY>
0

>  <SCORE.RESTR.norm>
0

>  <SCORE.SYSTEM>
0

>  <SCORE.SYSTEM.CONST>
0

>  <SCORE.SYSTEM.DIHEDRAL>
0

>  <SCORE.SYSTEM.SOLV>
0

>  <SCORE.SYSTEM.norm>
0

>  <SCORE.heavy>
27

>  <SCORE.norm>
-0.501133

>  <RMSD>
6.021

$$$$
ligand
 OpenBabel11021811503D
libRbt.so/2013.1/901 2013/11/27
 27 29  0  0  0  0  0  0  0  0999 V2000
   46.6319  -20.3761 -107.2090 N   0  0  0  0  0  0  0  0  0  0  0  0
   46.1774  -21.7286 -107.5507 C   0  0  2  0  0  0  0  0  0  0  0  0
   44.8083  -21.6543 -108.1932 C   0  0  0  0  0  0  0  0  0  0  0  0
   44.5890  -22.2416 -109.2419 O   0  0  0  0  0  0  0  0  0  0  0  0
   46.0929  -22.6212 -106.3051 C   0  0  0  0  0  0  0  0  0  0  0  0
   45.7258  -24.0485 -106.6859 C   0  0  0  0  0  0  0  0  0  0  0  0
   47.0895  -25.2449 -106.4167 S   0  0  2  0  0  0  0  0  0  0  0  0
   48.1518  -25.0370 -107.8823 C   0  0  0  0  0  0  0  0  0  0  0  0
   46.1657  -26.6876 -106.9402 C   0  0  0  0  0  0  0  0  0  0  0  0
   45.1398  -27.1465 -105.9383 C   0  0  1  0  0  0  0  0  0  0  0  0
   44.4419  -28.2689 -106.5040 O   0  0  0  0  0  0  0  0  0  0  0  0
   45.9720  -27.6791 -104.8423 C   0  0  1  0  0  0  0  0  0  0  0  0
   46.1125  -26.6904 -103.8234 O   0  0  0  0  0  0  0  0  0  0  0  0
   45.1467  -28.8213 -104.3359 C   0  0  1  0  0  0  0  0  0  0  0  0
   44.2088  -28.3605 -103.3412 O   0  0  0  0  0  0  0  0  0  0  0  0
   44.3767  -29.3770 -105.5713 C   0  0  2  0  0  0  0  0  0  0  0  0
   43.9066  -21.0370 -107.6540 O   0  0  0  0  0  0  0  0  0  0  0  0
   47.9651  -33.2860 -105.7749 N   0  0  0  0  0  0  0  0  0  0  0  0
   47.8198  -32.3454 -104.8095 C   0  0  0  0  0  0  0  0  0  0  0  0
   46.8330  -31.4261 -104.8568 N   0  0  0  0  0  0  0  0  0  0  0  0
   46.0104  -31.3585 -105.9161 C   0  0  0  0  0  0  0  0  0  0  0  0
   46.1554  -32.3147 -106.9871 C   0  0  0  0  0  0  0  0  0  0  0  0
   47.1766  -33.3041 -106.8703 C   0  0  0  0  0  0  0  0  0  0  0  0
   47.3640  -34.2549 -107.8530 N   0  0  0  0  0  0  0  0  0  0  0  0
   45.2283  -32.0256 -107.9078 N   0  0  0  0  0  0  0  0  0  0  0  0
   44.5466  -30.9927 -107.5105 C   0  0  0  0  0  0  0  0  0  0  0  0
   44.9779  -30.5413 -106.2850 N   0  0  0  0  0  0  0  0  0  0  0  0
  2  1  1  1  0  0  0
  2  3  1  0  0  0  0
  2  5  1  0  0  0  0
  3  4  1  0  0  0  0
  3 17  1  0  0  0  0
  5  6  1  0  0  0  0
  7  6  1  6  0  0  0
  7  8  1  0  0  0  0
  7  9  1  0  0  0  0
 10  9  1  6  0  0  0
 10 11  1  0  0  0  0
 10 12  1  0  0  0  0
 11 16  1  0  0  0  0
 12 13  1  1  0  0  0
 12 14  1  0  0  0  0
 14 15  1  1  0  0  0
 14 16  1  0  0  0  0
 16 27  1  6  0  0  0
 18 19  2  0  0  0  0
 18 23  1  0  0  0  0
 19 20  1  0  0  0  0
 20 21  2  0  0  0  0
 21 22  1  0  0  0  0
 21 27  1  0  0  0  0
 22 23  2  0  0  0  0
 22 25  1  0  0  0  0
 23 24  1  0  0  0  0
 25 26  2  0  0  0  0
 26 27  1  0  0  0  0
M  END
>  <CHROM.1>
130.65284994,-175.58286346,111.66687612,-80.85331919,-74.07139603,177.75713198
124.92029010,45.91275669,-27.48183938,-106.41184433,-1.87019447,-1.30832581
2.73304933

>  <Name>
ligand

>  <RI>
0

>  <Rbt.Current_Directory>
/home/itssahil/PROJECTS/Mol_Feturizer/New_Systems/rnas/4L81

>  <Rbt.Executable>
rbdock ($Id: //depot/dev/client3/rdock/2013.1/src/exe/rbdock.cxx#4 $)

>  <Rbt.Library>
libRbt.so (2013.1, Build901 2013/11/27)

>  <Rbt.Parameter_File>
/export/apps/rDock/src/rDock_2013.1_src/data/scripts/dock_solv.prm

>  <Rbt.Receptor>
prm/pocket_docking_8.prm

>  <SCORE>
-11.5254

>  <SCORE.INTER>
-10.6373

>  <SCORE.INTER.CONST>
1

>  <SCORE.INTER.POLAR>
0

>  <SCORE.INTER.ROT>
7

>  <SCORE.INTER.SOLV>
14.0671

>  <SCORE.INTER.VDW>
-20.0473

>  <SCORE.INTER.norm>
-0.393975

>  <SCORE.INTRA>
-0.888073

>  <SCORE.INTRA.DIHEDRAL>
0.723407

>  <SCORE.INTRA.DIHEDRAL.0>
8.34559

>  <SCORE.INTRA.POLAR>
0

>  <SCORE.INTRA.POLAR.0>
0

>  <SCORE.INTRA.REPUL>
0

>  <SCORE.INTRA.REPUL.0>
0

>  <SCORE.INTRA.SOLV>
-1.05253

>  <SCORE.INTRA.SOLV.lig_0>
-48.829

>  <SCORE.INTRA.VDW>
-0.723511

>  <SCORE.INTRA.VDW.0>
-1.77092

>  <SCORE.INTRA.norm>
-0.0328916

>  <SCORE.RESTR>
0

>  <SCORE.RESTR.CAVITY>
0

>  <SCORE.RESTR.norm>
0

>  <SCORE.SYSTEM>
0

>  <SCORE.SYSTEM.CONST>
0

>  <SCORE.SYSTEM.DIHEDRAL>
0

>  <SCORE.SYSTEM.SOLV>
0

>  <SCORE.SYSTEM.norm>
0

>  <SCORE.heavy>
27

>  <SCORE.norm>
-0.426867

>  <RMSD>
6.039

$$$$
ligand
 OpenBabel11021811503D
libRbt.so/2013.1/901 2013/11/27
 27 29  0  0  0  0  0  0  0  0999 V2000
   48.7304  -26.5724 -110.9536 N   0  0  0  0  0  0  0  0  0  0  0  0
   48.1311  -25.4827 -110.1751 C   0  0  2  0  0  0  0  0  0  0  0  0
   48.6122  -24.1523 -110.7147 C   0  0  0  0  0  0  0  0  0  0  0  0
   49.3282  -24.1131 -111.7039 O   0  0  0  0  0  0  0  0  0  0  0  0
   48.5097  -25.5821 -108.6911 C   0  0  0  0  0  0  0  0  0  0  0  0
   48.1372  -26.9462 -108.1276 C   0  0  0  0  0  0  0  0  0  0  0  0
   48.2813  -27.0411 -106.3018 S   0  0  2  0  0  0  0  0  0  0  0  0
   50.0774  -26.9918 -106.0000 C   0  0  0  0  0  0  0  0  0  0  0  0
   48.0259  -28.8109 -106.1955 C   0  0  0  0  0  0  0  0  0  0  0  0
   47.4841  -29.2661 -104.8666 C   0  0  1  0  0  0  0  0  0  0  0  0
   47.0531  -30.6302 -105.0096 O   0  0  0  0  0  0  0  0  0  0  0  0
   48.6901  -29.2942 -104.0166 C   0  0  1  0  0  0  0  0  0  0  0  0
   48.7674  -28.0905 -103.2546 O   0  0  0  0  0  0  0  0  0  0  0  0
   48.4202  -30.4559 -103.1113 C   0  0  1  0  0  0  0  0  0  0  0  0
   47.6693  -30.0280 -101.9561 O   0  0  0  0  0  0  0  0  0  0  0  0
   47.5763  -31.4653 -103.9461 C   0  0  2  0  0  0  0  0  0  0  0  0
   48.2632  -23.1104 -110.1878 O   0  0  0  0  0  0  0  0  0  0  0  0
   51.6820  -34.8286 -104.1192 N   0  0  0  0  0  0  0  0  0  0  0  0
   51.4415  -33.8629 -103.1987 C   0  0  0  0  0  0  0  0  0  0  0  0
   50.3308  -33.0979 -103.2459 N   0  0  0  0  0  0  0  0  0  0  0  0
   49.4645  -33.2108 -104.2658 C   0  0  0  0  0  0  0  0  0  0  0  0
   49.7026  -34.1984 -105.2907 C   0  0  0  0  0  0  0  0  0  0  0  0
   50.8602  -35.0236 -105.1722 C   0  0  0  0  0  0  0  0  0  0  0  0
   51.1432  -35.9944 -106.1115 N   0  0  0  0  0  0  0  0  0  0  0  0
   48.7065  -34.0991 -106.1789 N   0  0  0  0  0  0  0  0  0  0  0  0
   47.8991  -33.1522 -105.8036 C   0  0  0  0  0  0  0  0  0  0  0  0
   48.3102  -32.5722 -104.6262 N   0  0  0  0  0  0  0  0  0  0  0  0
  2  1  1  6  0  0  0
  2  3  1  0  0  0  0
  2  5  1  0  0  0  0
  3  4  1  0  0  0  0
  3 17  1  0  0  0  0
  5  6  1  0  0  0  0
  7  6  1  6  0  0  0
  7  8  1  0  0  0  0
  7  9  1  0  0  0  0
 10  9  1  6  0  0  0
 10 11  1  0  0  0  0
 10 12  1  0  0  0  0
 11 16  1  0  0  0  0
 12 13  1  1  0  0  0
 12 14  1  0  0  0  0
 14 15  1  1  0  0  0
 14 16  1  0  0  0  0
 16 27  1  6  0  0  0
 18 19  2  0  0  0  0
 18 23  1  0  0  0  0
 19 20  1  0  0  0  0
 20 21  2  0  0  0  0
 21 22  1  0  0  0  0
 21 27  1  0  0  0  0
 22 23  2  0  0  0  0
 22 25  1  0  0  0  0
 23 24  1  0  0  0  0
 25 26  2  0  0  0  0
 26 27  1  0  0  0  0
M  END
>  <CHROM.1>
3.80603474,-55.04472600,-169.75414011,-70.36225679,-155.09329549,167.54003523
143.45607669,48.87993354,-29.65471686,-106.08671513,-1.89353693,-1.18385882
2.28707609

>  <Name>
ligand

>  <RI>
0

>  <Rbt.Current_Directory>
/home/itssahil/PROJECTS/Mol_Feturizer/New_Systems/rnas/4L81

>  <Rbt.Executable>
rbdock ($Id: //depot/dev/client3/rdock/2013.1/src/exe/rbdock.cxx#4 $)

>  <Rbt.Library>
libRbt.so (2013.1, Build901 2013/11/27)

>  <Rbt.Parameter_File>
/export/apps/rDock/src/rDock_2013.1_src/data/scripts/dock_solv.prm

>  <Rbt.Receptor>
prm/pocket_docking_8.prm

>  <SCORE>
-8.90738

>  <SCORE.INTER>
-7.93117

>  <SCORE.INTER.CONST>
1

>  <SCORE.INTER.POLAR>
0

>  <SCORE.INTER.ROT>
7

>  <SCORE.INTER.SOLV>
9.05692

>  <SCORE.INTER.VDW>
-16.5731

>  <SCORE.INTER.norm>
-0.293747

>  <SCORE.INTRA>
-0.976208

>  <SCORE.INTRA.DIHEDRAL>
-1.62896

>  <SCORE.INTRA.DIHEDRAL.0>
8.34559

>  <SCORE.INTRA.POLAR>
0

>  <SCORE.INTRA.POLAR.0>
0

>  <SCORE.INTRA.REPUL>
0

>  <SCORE.INTRA.REPUL.0>
0

>  <SCORE.INTRA.SOLV>
-0.295022

>  <SCORE.INTRA.SOLV.lig_0>
-48.829

>  <SCORE.INTRA.VDW>
-0.0142189

>  <SCORE.INTRA.VDW.0>
-1.77092

>  <SCORE.INTRA.norm>
-0.0361559

>  <SCORE.RESTR>
0

>  <SCORE.RESTR.CAVITY>
0

>  <SCORE.RESTR.norm>
0

>  <SCORE.SYSTEM>
0

>  <SCORE.SYSTEM.CONST>
0

>  <SCORE.SYSTEM.DIHEDRAL>
0

>  <SCORE.SYSTEM.SOLV>
0

>  <SCORE.SYSTEM.norm>
0

>  <SCORE.heavy>
27

>  <SCORE.norm>
-0.329903

>  <RMSD>
6.042

$$$$
ligand
 OpenBabel11021811503D
libRbt.so/2013.1/901 2013/11/27
 27 29  0  0  0  0  0  0  0  0999 V2000
   48.8851  -25.6004 -103.9295 N   0  0  0  0  0  0  0  0  0  0  0  0
   50.1923  -25.6457 -104.5943 C   0  0  2  0  0  0  0  0  0  0  0  0
   50.4481  -24.3287 -105.2962 C   0  0  0  0  0  0  0  0  0  0  0  0
   51.5780  -23.8662 -105.3421 O   0  0  0  0  0  0  0  0  0  0  0  0
   50.2548  -26.7788 -105.6276 C   0  0  0  0  0  0  0  0  0  0  0  0
   49.2647  -26.5359 -106.7579 C   0  0  0  0  0  0  0  0  0  0  0  0
   49.0781  -27.9739 -107.8806 S   0  0  2  0  0  0  0  0  0  0  0  0
   48.0611  -27.3330 -109.2498 C   0  0  0  0  0  0  0  0  0  0  0  0
   47.7926  -28.7780 -106.9268 C   0  0  0  0  0  0  0  0  0  0  0  0
   47.3628  -30.1070 -107.4888 C   0  0  1  0  0  0  0  0  0  0  0  0
   48.4849  -31.0025 -107.4115 O   0  0  0  0  0  0  0  0  0  0  0  0
   46.3809  -30.5782 -106.4930 C   0  0  1  0  0  0  0  0  0  0  0  0
   45.0606  -30.2790 -106.9433 O   0  0  0  0  0  0  0  0  0  0  0  0
   46.5998  -32.0595 -106.4995 C   0  0  1  0  0  0  0  0  0  0  0  0
   45.7950  -32.6813 -107.5228 O   0  0  0  0  0  0  0  0  0  0  0  0
   48.1112  -32.2699 -106.8149 C   0  0  2  0  0  0  0  0  0  0  0  0
   49.5372  -23.7370 -105.8485 O   0  0  0  0  0  0  0  0  0  0  0  0
   51.0897  -30.2060 -102.9333 N   0  0  0  0  0  0  0  0  0  0  0  0
   50.3745  -29.5383 -103.8717 C   0  0  0  0  0  0  0  0  0  0  0  0
   49.6201  -30.1867 -104.7836 N   0  0  0  0  0  0  0  0  0  0  0  0
   49.6238  -31.5281 -104.8462 C   0  0  0  0  0  0  0  0  0  0  0  0
   50.4039  -32.2791 -103.8923 C   0  0  0  0  0  0  0  0  0  0  0  0
   51.1431  -31.5546 -102.9105 C   0  0  0  0  0  0  0  0  0  0  0  0
   51.9023  -32.2098 -101.9623 N   0  0  0  0  0  0  0  0  0  0  0  0
   50.2386  -33.5765 -104.1755 N   0  0  0  0  0  0  0  0  0  0  0  0
   49.4499  -33.6871 -105.2027 C   0  0  0  0  0  0  0  0  0  0  0  0
   49.0321  -32.4577 -105.6560 N   0  0  0  0  0  0  0  0  0  0  0  0
  2  1  1  6  0  0  0
  2  3  1  0  0  0  0
  2  5  1  0  0  0  0
  3  4  1  0  0  0  0
  3 17  1  0  0  0  0
  5  6  1  0  0  0  0
  7  6  1  1  0  0  0
  7  8  1  0  0  0  0
  7  9  1  0  0  0  0
 10  9  1  1  0  0  0
 10 11  1  0  0  0  0
 10 12  1  0  0  0  0
 11 16  1  0  0  0  0
 12 13  1  6  0  0  0
 12 14  1  0  0  0  0
 14 15  1  6  0  0  0
 14 16  1  0  0  0  0
 16 27  1  1  0  0  0
 18 19  2  0  0  0  0
 18 23  1  0  0  0  0
 19 20  1  0  0  0  0
 20 21  2  0  0  0  0
 21 22  1  0  0  0  0
 21 27  1  0  0  0  0
 22 23  2  0  0  0  0
 22 25  1  0  0  0  0
 23 24  1  0  0  0  0
 25 26  2  0  0  0  0
 26 27  1  0  0  0  0
M  END
>  <CHROM.1>
144.27224436,64.29600086,-170.35468149,-171.65022739,-177.16864658,64.47657788
30.60784185,49.05519727,-29.36486382,-105.75783776,-1.31124132,0.79137440
2.89902145

>  <Name>
ligand

>  <RI>
0

>  <Rbt.Current_Directory>
/home/itssahil/PROJECTS/Mol_Feturizer/New_Systems/rnas/4L81

>  <Rbt.Executable>
rbdock ($Id: //depot/dev/client3/rdock/2013.1/src/exe/rbdock.cxx#4 $)

>  <Rbt.Library>
libRbt.so (2013.1, Build901 2013/11/27)

>  <Rbt.Parameter_File>
/export/apps/rDock/src/rDock_2013.1_src/data/scripts/dock_solv.prm

>  <Rbt.Receptor>
prm/pocket_docking_6.prm

>  <SCORE>
-13.9068

>  <SCORE.INTER>
-10.5449

>  <SCORE.INTER.CONST>
1

>  <SCORE.INTER.POLAR>
0

>  <SCORE.INTER.ROT>
7

>  <SCORE.INTER.SOLV>
14.0905

>  <SCORE.INTER.VDW>
-19.9934

>  <SCORE.INTER.norm>
-0.390553

>  <SCORE.INTRA>
-3.36189

>  <SCORE.INTRA.DIHEDRAL>
-3.47404

>  <SCORE.INTRA.DIHEDRAL.0>
8.34559

>  <SCORE.INTRA.POLAR>
0

>  <SCORE.INTRA.POLAR.0>
0

>  <SCORE.INTRA.REPUL>
0

>  <SCORE.INTRA.REPUL.0>
0

>  <SCORE.INTRA.SOLV>
-0.491303

>  <SCORE.INTRA.SOLV.lig_0>
-48.829

>  <SCORE.INTRA.VDW>
-1.37922

>  <SCORE.INTRA.VDW.0>
-1.77092

>  <SCORE.INTRA.norm>
-0.124514

>  <SCORE.RESTR>
0

>  <SCORE.RESTR.CAVITY>
0

>  <SCORE.RESTR.norm>
0

>  <SCORE.SYSTEM>
0

>  <SCORE.SYSTEM.CONST>
0

>  <SCORE.SYSTEM.DIHEDRAL>
0

>  <SCORE.SYSTEM.SOLV>
0

>  <SCORE.SYSTEM.norm>
0

>  <SCORE.heavy>
27

>  <SCORE.norm>
-0.515067

>  <RMSD>
6.044

$$$$
ligand
 OpenBabel11021811503D
libRbt.so/2013.1/901 2013/11/27
 27 29  0  0  0  0  0  0  0  0999 V2000
   48.5639  -24.3157 -104.6930 N   0  0  0  0  0  0  0  0  0  0  0  0
   48.5423  -24.6469 -103.2638 C   0  0  2  0  0  0  0  0  0  0  0  0
   48.5541  -23.3707 -102.4492 C   0  0  0  0  0  0  0  0  0  0  0  0
   49.1904  -22.4015 -102.8346 O   0  0  0  0  0  0  0  0  0  0  0  0
   49.7566  -25.4985 -102.8691 C   0  0  0  0  0  0  0  0  0  0  0  0
   49.6530  -26.8966 -103.4619 C   0  0  0  0  0  0  0  0  0  0  0  0
   48.3022  -27.8973 -102.7288 S   0  0  2  0  0  0  0  0  0  0  0  0
   49.0827  -28.7049 -101.2942 C   0  0  0  0  0  0  0  0  0  0  0  0
   48.4180  -29.2418 -103.9069 C   0  0  0  0  0  0  0  0  0  0  0  0
   47.2462  -30.1861 -103.8656 C   0  0  1  0  0  0  0  0  0  0  0  0
   47.0184  -30.6653 -105.2018 O   0  0  0  0  0  0  0  0  0  0  0  0
   47.7762  -31.3278 -103.0953 C   0  0  1  0  0  0  0  0  0  0  0  0
   47.3722  -31.2146 -101.7317 O   0  0  0  0  0  0  0  0  0  0  0  0
   47.0918  -32.4953 -103.7360 C   0  0  1  0  0  0  0  0  0  0  0  0
   45.8102  -32.7281 -103.1158 O   0  0  0  0  0  0  0  0  0  0  0  0
   46.8926  -32.1094 -105.2325 C   0  0  2  0  0  0  0  0  0  0  0  0
   47.9038  -23.2887 -101.4219 O   0  0  0  0  0  0  0  0  0  0  0  0
   48.1677  -34.8387 -109.6055 N   0  0  0  0  0  0  0  0  0  0  0  0
   46.9449  -34.7171 -109.0330 C   0  0  0  0  0  0  0  0  0  0  0  0
   46.7464  -33.9538 -107.9380 N   0  0  0  0  0  0  0  0  0  0  0  0
   47.7801  -33.3558 -107.3237 C   0  0  0  0  0  0  0  0  0  0  0  0
   49.1065  -33.4921 -107.8754 C   0  0  0  0  0  0  0  0  0  0  0  0
   49.2628  -34.2629 -109.0657 C   0  0  0  0  0  0  0  0  0  0  0  0
   50.5014  -34.4262 -109.6521 N   0  0  0  0  0  0  0  0  0  0  0  0
   49.9410  -32.8130 -107.0796 N   0  0  0  0  0  0  0  0  0  0  0  0
   49.2609  -32.2898 -106.1033 C   0  0  0  0  0  0  0  0  0  0  0  0
   47.9211  -32.5836 -106.2039 N   0  0  0  0  0  0  0  0  0  0  0  0
  2  1  1  6  0  0  0
  2  3  1  0  0  0  0
  2  5  1  0  0  0  0
  3  4  1  0  0  0  0
  3 17  1  0  0  0  0
  5  6  1  0  0  0  0
  7  6  1  6  0  0  0
  7  8  1  0  0  0  0
  7  9  1  0  0  0  0
 10  9  1  6  0  0  0
 10 11  1  0  0  0  0
 10 12  1  0  0  0  0
 11 16  1  0  0  0  0
 12 13  1  1  0  0  0
 12 14  1  0  0  0  0
 14 15  1  1  0  0  0
 14 16  1  0  0  0  0
 16 27  1  6  0  0  0
 18 19  2  0  0  0  0
 18 23  1  0  0  0  0
 19 20  1  0  0  0  0
 20 21  2  0  0  0  0
 21 22  1  0  0  0  0
 21 27  1  0  0  0  0
 22 23  2  0  0  0  0
 22 25  1  0  0  0  0
 23 24  1  0  0  0  0
 25 26  2  0  0  0  0
 26 27  1  0  0  0  0
M  END
>  <CHROM.1>
-35.68235564,-69.80369112,-68.26372659,-88.45402578,-166.73259229,146.62996339
-124.20371149,48.23879170,-29.92226424,-104.77665144,-1.47709744,-1.09739464
-2.53608372

>  <Name>
ligand

>  <RI>
0

>  <Rbt.Current_Directory>
/home/itssahil/PROJECTS/Mol_Feturizer/New_Systems/rnas/4L81

>  <Rbt.Executable>
rbdock ($Id: //depot/dev/client3/rdock/2013.1/src/exe/rbdock.cxx#4 $)

>  <Rbt.Library>
libRbt.so (2013.1, Build901 2013/11/27)

>  <Rbt.Parameter_File>
/export/apps/rDock/src/rDock_2013.1_src/data/scripts/dock_solv.prm

>  <Rbt.Receptor>
prm/pocket_docking_8.prm

>  <SCORE>
-9.93041

>  <SCORE.INTER>
-9.18417

>  <SCORE.INTER.CONST>
1

>  <SCORE.INTER.POLAR>
0

>  <SCORE.INTER.ROT>
7

>  <SCORE.INTER.SOLV>
5.50332

>  <SCORE.INTER.VDW>
-16.2239

>  <SCORE.INTER.norm>
-0.340154

>  <SCORE.INTRA>
-0.746237

>  <SCORE.INTRA.DIHEDRAL>
0.630606

>  <SCORE.INTRA.DIHEDRAL.0>
8.34559

>  <SCORE.INTRA.POLAR>
0

>  <SCORE.INTRA.POLAR.0>
0

>  <SCORE.INTRA.REPUL>
0

>  <SCORE.INTRA.REPUL.0>
0

>  <SCORE.INTRA.SOLV>
-0.0295469

>  <SCORE.INTRA.SOLV.lig_0>
-48.829

>  <SCORE.INTRA.VDW>
-1.04677

>  <SCORE.INTRA.VDW.0>
-1.77092

>  <SCORE.INTRA.norm>
-0.0276384

>  <SCORE.RESTR>
0

>  <SCORE.RESTR.CAVITY>
0

>  <SCORE.RESTR.norm>
0

>  <SCORE.SYSTEM>
0

>  <SCORE.SYSTEM.CONST>
0

>  <SCORE.SYSTEM.DIHEDRAL>
0

>  <SCORE.SYSTEM.SOLV>
0

>  <SCORE.SYSTEM.norm>
0

>  <SCORE.heavy>
27

>  <SCORE.norm>
-0.367793

>  <RMSD>
6.044

$$$$
ligand
 OpenBabel11021811503D
libRbt.so/2013.1/901 2013/11/27
 27 29  0  0  0  0  0  0  0  0999 V2000
   47.7149  -30.6239 -100.2874 N   0  0  0  0  0  0  0  0  0  0  0  0
   47.1041  -29.6001 -101.1427 C   0  0  2  0  0  0  0  0  0  0  0  0
   48.0520  -28.4277 -101.2831 C   0  0  0  0  0  0  0  0  0  0  0  0
   49.1561  -28.4643 -100.7612 O   0  0  0  0  0  0  0  0  0  0  0  0
   45.7784  -29.0984 -100.5543 C   0  0  0  0  0  0  0  0  0  0  0  0
   44.6960  -30.1618 -100.6743 C   0  0  0  0  0  0  0  0  0  0  0  0
   44.1392  -30.4389 -102.3996 S   0  0  2  0  0  0  0  0  0  0  0  0
   42.9704  -31.8302 -102.2657 C   0  0  0  0  0  0  0  0  0  0  0  0
   45.5972  -31.3439 -102.9134 C   0  0  0  0  0  0  0  0  0  0  0  0
   45.5613  -31.7836 -104.3529 C   0  0  1  0  0  0  0  0  0  0  0  0
   45.1180  -30.6681 -105.1441 O   0  0  0  0  0  0  0  0  0  0  0  0
   46.9895  -31.9800 -104.6680 C   0  0  1  0  0  0  0  0  0  0  0  0
   47.3210  -33.3624 -104.5477 O   0  0  0  0  0  0  0  0  0  0  0  0
   47.0644  -31.5593 -106.1031 C   0  0  1  0  0  0  0  0  0  0  0  0
   46.7651  -32.6737 -106.9691 O   0  0  0  0  0  0  0  0  0  0  0  0
   45.9884  -30.4466 -106.2823 C   0  0  2  0  0  0  0  0  0  0  0  0
   47.7351  -27.4541 -101.9439 O   0  0  0  0  0  0  0  0  0  0  0  0
   44.9088  -25.3340 -105.3368 N   0  0  0  0  0  0  0  0  0  0  0  0
   44.0397  -26.3745 -105.3511 C   0  0  0  0  0  0  0  0  0  0  0  0
   44.4525  -27.6413 -105.5652 N   0  0  0  0  0  0  0  0  0  0  0  0
   45.7362  -27.9024 -105.8611 C   0  0  0  0  0  0  0  0  0  0  0  0
   46.6888  -26.8190 -105.8973 C   0  0  0  0  0  0  0  0  0  0  0  0
   46.2198  -25.5025 -105.6104 C   0  0  0  0  0  0  0  0  0  0  0  0
   47.0785  -24.4222 -105.6180 N   0  0  0  0  0  0  0  0  0  0  0  0
   47.8775  -27.3440 -106.2169 N   0  0  0  0  0  0  0  0  0  0  0  0
   47.7413  -28.6255 -106.3856 C   0  0  0  0  0  0  0  0  0  0  0  0
   46.4442  -29.0302 -106.1723 N   0  0  0  0  0  0  0  0  0  0  0  0
  2  1  1  1  0  0  0
  2  3  1  0  0  0  0
  2  5  1  0  0  0  0
  3  4  1  0  0  0  0
  3 17  1  0  0  0  0
  5  6  1  0  0  0  0
  7  6  1  1  0  0  0
  7  8  1  0  0  0  0
  7  9  1  0  0  0  0
 10  9  1  1  0  0  0
 10 11  1  0  0  0  0
 10 12  1  0  0  0  0
 11 16  1  0  0  0  0
 12 13  1  6  0  0  0
 12 14  1  0  0  0  0
 14 15  1  6  0  0  0
 14 16  1  0  0  0  0
 16 27  1  1  0  0  0
 18 19  2  0  0  0  0
 18 23  1  0  0  0  0
 19 20  1  0  0  0  0
 20 21  2  0  0  0  0
 21 22  1  0  0  0  0
 21 27  1  0  0  0  0
 22 23  2  0  0  0  0
 22 25  1  0  0  0  0
 23 24  1  0  0  0  0
 25 26  2  0  0  0  0
 26 27  1  0  0  0  0
M  END
>  <CHROM.1>
2.62155512,-71.58631139,-70.36053192,175.43879143,-179.69388960,45.68924688
-43.34431554,46.16642207,-29.35190431,-103.96146662,-2.10885258,-1.43211809
-1.11795377

>  <Name>
ligand

>  <RI>
0

>  <Rbt.Current_Directory>
/home/itssahil/PROJECTS/Mol_Feturizer/New_Systems/rnas/4L81

>  <Rbt.Executable>
rbdock ($Id: //depot/dev/client3/rdock/2013.1/src/exe/rbdock.cxx#4 $)

>  <Rbt.Library>
libRbt.so (2013.1, Build901 2013/11/27)

>  <Rbt.Parameter_File>
/export/apps/rDock/src/rDock_2013.1_src/data/scripts/dock_solv.prm

>  <Rbt.Receptor>
prm/pocket_docking_5.prm

>  <SCORE>
-14.8422

>  <SCORE.INTER>
-13.4883

>  <SCORE.INTER.CONST>
1

>  <SCORE.INTER.POLAR>
0

>  <SCORE.INTER.ROT>
7

>  <SCORE.INTER.SOLV>
13.2389

>  <SCORE.INTER.VDW>
-21.6718

>  <SCORE.INTER.norm>
-0.499568

>  <SCORE.INTRA>
-1.36107

>  <SCORE.INTRA.DIHEDRAL>
-3.27546

>  <SCORE.INTRA.DIHEDRAL.0>
8.34559

>  <SCORE.INTRA.POLAR>
0

>  <SCORE.INTRA.POLAR.0>
0

>  <SCORE.INTRA.REPUL>
0

>  <SCORE.INTRA.REPUL.0>
0

>  <SCORE.INTRA.SOLV>
0.705131

>  <SCORE.INTRA.SOLV.lig_0>
-48.829

>  <SCORE.INTRA.VDW>
-0.0759086

>  <SCORE.INTRA.VDW.0>
-1.77092

>  <SCORE.INTRA.norm>
-0.0504102

>  <SCORE.RESTR>
0.00716147

>  <SCORE.RESTR.CAVITY>
0.00716147

>  <SCORE.RESTR.norm>
0.00026524

>  <SCORE.SYSTEM>
0

>  <SCORE.SYSTEM.CONST>
0

>  <SCORE.SYSTEM.DIHEDRAL>
0

>  <SCORE.SYSTEM.SOLV>
0

>  <SCORE.SYSTEM.norm>
0

>  <SCORE.heavy>
27

>  <SCORE.norm>
-0.549713

>  <RMSD>
6.051

$$$$
ligand
 OpenBabel11021811503D
libRbt.so/2013.1/901 2013/11/27
 27 29  0  0  0  0  0  0  0  0999 V2000
   43.6543  -29.9058 -101.2757 N   0  0  0  0  0  0  0  0  0  0  0  0
   45.0894  -29.7078 -101.5083 C   0  0  2  0  0  0  0  0  0  0  0  0
   45.2943  -28.5108 -102.4126 C   0  0  0  0  0  0  0  0  0  0  0  0
   46.3260  -27.8597 -102.3459 O   0  0  0  0  0  0  0  0  0  0  0  0
   45.7243  -30.9406 -102.1658 C   0  0  0  0  0  0  0  0  0  0  0  0
   47.2430  -30.8376 -102.1559 C   0  0  0  0  0  0  0  0  0  0  0  0
   48.0718  -32.2573 -102.9688 S   0  0  2  0  0  0  0  0  0  0  0  0
   49.8416  -31.9830 -102.6339 C   0  0  0  0  0  0  0  0  0  0  0  0
   47.9909  -31.5843 -104.6269 C   0  0  0  0  0  0  0  0  0  0  0  0
   46.6576  -31.7836 -105.2972 C   0  0  1  0  0  0  0  0  0  0  0  0
   45.8759  -30.5956 -105.0866 O   0  0  0  0  0  0  0  0  0  0  0  0
   47.0139  -31.8028 -106.7292 C   0  0  1  0  0  0  0  0  0  0  0  0
   47.1239  -33.1528 -107.1774 O   0  0  0  0  0  0  0  0  0  0  0  0
   45.8275  -31.1478 -107.3659 C   0  0  1  0  0  0  0  0  0  0  0  0
   44.8069  -32.1267 -107.6516 O   0  0  0  0  0  0  0  0  0  0  0  0
   45.2950  -30.1170 -106.3258 C   0  0  2  0  0  0  0  0  0  0  0  0
   44.4482  -28.2075 -103.2355 O   0  0  0  0  0  0  0  0  0  0  0  0
   48.8874  -26.6022 -108.0402 N   0  0  0  0  0  0  0  0  0  0  0  0
   48.9419  -27.9536 -108.1331 C   0  0  0  0  0  0  0  0  0  0  0  0
   47.9355  -28.7367 -107.6917 N   0  0  0  0  0  0  0  0  0  0  0  0
   46.8777  -28.2015 -107.0607 C   0  0  0  0  0  0  0  0  0  0  0  0
   46.7978  -26.7693 -106.9029 C   0  0  0  0  0  0  0  0  0  0  0  0
   47.8575  -25.9751 -107.4336 C   0  0  0  0  0  0  0  0  0  0  0  0
   47.8400  -24.5992 -107.3263 N   0  0  0  0  0  0  0  0  0  0  0  0
   45.6632  -26.5035 -106.2450 N   0  0  0  0  0  0  0  0  0  0  0  0
   45.0558  -27.6221 -105.9820 C   0  0  0  0  0  0  0  0  0  0  0  0
   45.7529  -28.7040 -106.4670 N   0  0  0  0  0  0  0  0  0  0  0  0
  2  1  1  6  0  0  0
  2  3  1  0  0  0  0
  2  5  1  0  0  0  0
  3  4  1  0  0  0  0
  3 17  1  0  0  0  0
  5  6  1  0  0  0  0
  7  6  1  1  0  0  0
  7  8  1  0  0  0  0
  7  9  1  0  0  0  0
 10  9  1  1  0  0  0
 10 11  1  0  0  0  0
 10 12  1  0  0  0  0
 11 16  1  0  0  0  0
 12 13  1  6  0  0  0
 12 14  1  0  0  0  0
 14 15  1  1  0  0  0
 14 16  1  0  0  0  0
 16 27  1  6  0  0  0
 18 19  2  0  0  0  0
 18 23  1  0  0  0  0
 19 20  1  0  0  0  0
 20 21  2  0  0  0  0
 21 22  1  0  0  0  0
 21 27  1  0  0  0  0
 22 23  2  0  0  0  0
 22 25  1  0  0  0  0
 23 24  1  0  0  0  0
 25 26  2  0  0  0  0
 26 27  1  0  0  0  0
M  END
>  <CHROM.1>
152.28960321,-168.98929728,-178.40458733,-173.24780698,-81.14308473,94.99830576
89.16720306,46.64474908,-29.61733749,-105.11588150,1.88033751,-1.20288184
2.60875150

>  <Name>
ligand

>  <RI>
0

>  <Rbt.Current_Directory>
/home/itssahil/PROJECTS/Mol_Feturizer/New_Systems/rnas/4L81

>  <Rbt.Executable>
rbdock ($Id: //depot/dev/client3/rdock/2013.1/src/exe/rbdock.cxx#4 $)

>  <Rbt.Library>
libRbt.so (2013.1, Build901 2013/11/27)

>  <Rbt.Parameter_File>
/export/apps/rDock/src/rDock_2013.1_src/data/scripts/dock_solv.prm

>  <Rbt.Receptor>
prm/pocket_docking_6.prm

>  <SCORE>
-12.2752

>  <SCORE.INTER>
-9.14015

>  <SCORE.INTER.CONST>
1

>  <SCORE.INTER.POLAR>
0

>  <SCORE.INTER.ROT>
7

>  <SCORE.INTER.SOLV>
13.9174

>  <SCORE.INTER.VDW>
-18.9992

>  <SCORE.INTER.norm>
-0.338524

>  <SCORE.INTRA>
-3.13502

>  <SCORE.INTRA.DIHEDRAL>
-0.214192

>  <SCORE.INTRA.DIHEDRAL.0>
8.34559

>  <SCORE.INTRA.POLAR>
0

>  <SCORE.INTRA.POLAR.0>
0

>  <SCORE.INTRA.REPUL>
0

>  <SCORE.INTRA.REPUL.0>
0

>  <SCORE.INTRA.SOLV>
-1.03214

>  <SCORE.INTRA.SOLV.lig_0>
-48.829

>  <SCORE.INTRA.VDW>
-2.51185

>  <SCORE.INTRA.VDW.0>
-1.77092

>  <SCORE.INTRA.norm>
-0.116112

>  <SCORE.RESTR>
0

>  <SCORE.RESTR.CAVITY>
0

>  <SCORE.RESTR.norm>
0

>  <SCORE.SYSTEM>
0

>  <SCORE.SYSTEM.CONST>
0

>  <SCORE.SYSTEM.DIHEDRAL>
0

>  <SCORE.SYSTEM.SOLV>
0

>  <SCORE.SYSTEM.norm>
0

>  <SCORE.heavy>
27

>  <SCORE.norm>
-0.454636

>  <RMSD>
6.081

$$$$
ligand
 OpenBabel11021811503D
libRbt.so/2013.1/901 2013/11/27
 27 29  0  0  0  0  0  0  0  0999 V2000
   49.1815  -29.4978 -103.1705 N   0  0  0  0  0  0  0  0  0  0  0  0
   50.3716  -30.1034 -102.5627 C   0  0  2  0  0  0  0  0  0  0  0  0
   50.3247  -31.6055 -102.7477 C   0  0  0  0  0  0  0  0  0  0  0  0
   51.0797  -32.3267 -102.1132 O   0  0  0  0  0  0  0  0  0  0  0  0
   50.4534  -29.7909 -101.0623 C   0  0  0  0  0  0  0  0  0  0  0  0
   49.3065  -30.4496 -100.3089 C   0  0  0  0  0  0  0  0  0  0  0  0
   47.7023  -29.5894 -100.5330 S   0  0  2  0  0  0  0  0  0  0  0  0
   46.8058  -29.9211  -98.9819 C   0  0  0  0  0  0  0  0  0  0  0  0
   46.9640  -30.8563 -101.5619 C   0  0  0  0  0  0  0  0  0  0  0  0
   45.4590  -30.8194 -101.5822 C   0  0  1  0  0  0  0  0  0  0  0  0
   45.0499  -29.4449 -101.4808 O   0  0  0  0  0  0  0  0  0  0  0  0
   45.1421  -31.2509 -102.9573 C   0  0  1  0  0  0  0  0  0  0  0  0
   44.8271  -32.6424 -102.9623 O   0  0  0  0  0  0  0  0  0  0  0  0
   43.9181  -30.4486 -103.2736 C   0  0  1  0  0  0  0  0  0  0  0  0
   42.7341  -31.1431 -102.8296 O   0  0  0  0  0  0  0  0  0  0  0  0
   44.0685  -29.1081 -102.4935 C   0  0  2  0  0  0  0  0  0  0  0  0
   49.5129  -32.1086 -103.5045 O   0  0  0  0  0  0  0  0  0  0  0  0
   48.0076  -25.6309 -103.2624 N   0  0  0  0  0  0  0  0  0  0  0  0
   47.9344  -26.6037 -102.3210 C   0  0  0  0  0  0  0  0  0  0  0  0
   46.8887  -27.4544 -102.2591 N   0  0  0  0  0  0  0  0  0  0  0  0
   45.8364  -27.3068 -103.0802 C   0  0  0  0  0  0  0  0  0  0  0  0
   45.8536  -26.2581 -104.0714 C   0  0  0  0  0  0  0  0  0  0  0  0
   47.0033  -25.4161 -104.1383 C   0  0  0  0  0  0  0  0  0  0  0  0
   47.0899  -24.4001 -105.0684 N   0  0  0  0  0  0  0  0  0  0  0  0
   44.6990  -26.3269 -104.7445 N   0  0  0  0  0  0  0  0  0  0  0  0
   43.9849  -27.2986 -104.2594 C   0  0  0  0  0  0  0  0  0  0  0  0
   44.6369  -27.9450 -103.2354 N   0  0  0  0  0  0  0  0  0  0  0  0
  2  1  1  1  0  0  0
  2  3  1  0  0  0  0
  2  5  1  0  0  0  0
  3  4  1  0  0  0  0
  3 17  1  0  0  0  0
  5  6  1  0  0  0  0
  7  6  1  1  0  0  0
  7  8  1  0  0  0  0
  7  9  1  0  0  0  0
 10  9  1  6  0  0  0
 10 11  1  0  0  0  0
 10 12  1  0  0  0  0
 11 16  1  0  0  0  0
 12 13  1  1  0  0  0
 12 14  1  0  0  0  0
 14 15  1  1  0  0  0
 14 16  1  0  0  0  0
 16 27  1  6  0  0  0
 18 19  2  0  0  0  0
 18 23  1  0  0  0  0
 19 20  1  0  0  0  0
 20 21  2  0  0  0  0
 21 22  1  0  0  0  0
 21 27  1  0  0  0  0
 22 23  2  0  0  0  0
 22 25  1  0  0  0  0
 23 24  1  0  0  0  0
 25 26  2  0  0  0  0
 26 27  1  0  0  0  0
M  END
>  <CHROM.1>
-166.49182434,65.78376946,-75.75255936,-150.47144805,158.51128299,33.93477389
1.95044766,46.89440690,-29.22472939,-102.48188831,-0.84002548,-0.13426709
-0.33952811

>  <Name>
ligand

>  <RI>
0

>  <Rbt.Current_Directory>
/home/itssahil/PROJECTS/Mol_Feturizer/New_Systems/rnas/4L81

>  <Rbt.Executable>
rbdock ($Id: //depot/dev/client3/rdock/2013.1/src/exe/rbdock.cxx#4 $)

>  <Rbt.Library>
libRbt.so (2013.1, Build901 2013/11/27)

>  <Rbt.Parameter_File>
/export/apps/rDock/src/rDock_2013.1_src/data/scripts/dock_solv.prm

>  <Rbt.Receptor>
prm/pocket_docking_2.prm

>  <SCORE>
-10.7239

>  <SCORE.INTER>
-13.9888

>  <SCORE.INTER.CONST>
1

>  <SCORE.INTER.POLAR>
0

>  <SCORE.INTER.ROT>
7

>  <SCORE.INTER.SOLV>
10.2799

>  <SCORE.INTER.VDW>
-21.0192

>  <SCORE.INTER.norm>
-0.518104

>  <SCORE.INTRA>
1.78985

>  <SCORE.INTRA.DIHEDRAL>
1.56009

>  <SCORE.INTRA.DIHEDRAL.0>
8.34559

>  <SCORE.INTRA.POLAR>
0

>  <SCORE.INTRA.POLAR.0>
0

>  <SCORE.INTRA.REPUL>
0

>  <SCORE.INTRA.REPUL.0>
0

>  <SCORE.INTRA.SOLV>
2.93695

>  <SCORE.INTRA.SOLV.lig_0>
-48.829

>  <SCORE.INTRA.VDW>
-0.45867

>  <SCORE.INTRA.VDW.0>
-1.77092

>  <SCORE.INTRA.norm>
0.0662909

>  <SCORE.RESTR>
1.47506

>  <SCORE.RESTR.CAVITY>
1.47506

>  <SCORE.RESTR.norm>
0.0546317

>  <SCORE.SYSTEM>
0

>  <SCORE.SYSTEM.CONST>
0

>  <SCORE.SYSTEM.DIHEDRAL>
0

>  <SCORE.SYSTEM.SOLV>
0

>  <SCORE.SYSTEM.norm>
0

>  <SCORE.heavy>
27

>  <SCORE.norm>
-0.397181

>  <RMSD>
6.082

$$$$
ligand
 OpenBabel11021811503D
libRbt.so/2013.1/901 2013/11/27
 27 29  0  0  0  0  0  0  0  0999 V2000
   47.0777  -29.1770 -101.8404 N   0  0  0  0  0  0  0  0  0  0  0  0
   45.8081  -29.0920 -101.1100 C   0  0  2  0  0  0  0  0  0  0  0  0
   46.0532  -29.3527  -99.6387 C   0  0  0  0  0  0  0  0  0  0  0  0
   45.8291  -30.4562  -99.1645 O   0  0  0  0  0  0  0  0  0  0  0  0
   44.7927  -30.1171 -101.6329 C   0  0  0  0  0  0  0  0  0  0  0  0
   44.2764  -29.7151 -103.0072 C   0  0  0  0  0  0  0  0  0  0  0  0
   45.5553  -29.8074 -104.3183 S   0  0  2  0  0  0  0  0  0  0  0  0
   44.6506  -29.3919 -105.8443 C   0  0  0  0  0  0  0  0  0  0  0  0
   45.5380  -31.5932 -104.4576 C   0  0  0  0  0  0  0  0  0  0  0  0
   46.7057  -32.1523 -105.2262 C   0  0  1  0  0  0  0  0  0  0  0  0
   46.9615  -31.2777 -106.3382 O   0  0  0  0  0  0  0  0  0  0  0  0
   47.8287  -31.9741 -104.2855 C   0  0  1  0  0  0  0  0  0  0  0  0
   48.0664  -33.1949 -103.5865 O   0  0  0  0  0  0  0  0  0  0  0  0
   48.9747  -31.6789 -105.2029 C   0  0  1  0  0  0  0  0  0  0  0  0
   49.5946  -32.9052 -105.6424 O   0  0  0  0  0  0  0  0  0  0  0  0
   48.3657  -30.9270 -106.4243 C   0  0  2  0  0  0  0  0  0  0  0  0
   46.5064  -28.4759  -98.9241 O   0  0  0  0  0  0  0  0  0  0  0  0
   48.1048  -26.2843 -108.9886 N   0  0  0  0  0  0  0  0  0  0  0  0
   48.0282  -27.5289 -109.5204 C   0  0  0  0  0  0  0  0  0  0  0  0
   48.0666  -28.6347 -108.7479 N   0  0  0  0  0  0  0  0  0  0  0  0
   48.2724  -28.5384 -107.4243 C   0  0  0  0  0  0  0  0  0  0  0  0
   48.4007  -27.2338 -106.8209 C   0  0  0  0  0  0  0  0  0  0  0  0
   48.2987  -26.0896 -107.6670 C   0  0  0  0  0  0  0  0  0  0  0  0
   48.4023  -24.8123 -107.1546 N   0  0  0  0  0  0  0  0  0  0  0  0
   48.6016  -27.4185 -105.5108 N   0  0  0  0  0  0  0  0  0  0  0  0
   48.6168  -28.6942 -105.2619 C   0  0  0  0  0  0  0  0  0  0  0  0
   48.4115  -29.4358 -106.4019 N   0  0  0  0  0  0  0  0  0  0  0  0
  2  1  1  6  0  0  0
  2  3  1  0  0  0  0
  2  5  1  0  0  0  0
  3  4  1  0  0  0  0
  3 17  1  0  0  0  0
  5  6  1  0  0  0  0
  7  6  1  1  0  0  0
  7  8  1  0  0  0  0
  7  9  1  0  0  0  0
 10  9  1  1  0  0  0
 10 11  1  0  0  0  0
 10 12  1  0  0  0  0
 11 16  1  0  0  0  0
 12 13  1  6  0  0  0
 12 14  1  0  0  0  0
 14 15  1  6  0  0  0
 14 16  1  0  0  0  0
 16 27  1  1  0  0  0
 18 19  2  0  0  0  0
 18 23  1  0  0  0  0
 19 20  1  0  0  0  0
 20 21  2  0  0  0  0
 21 22  1  0  0  0  0
 21 27  1  0  0  0  0
 22 23  2  0  0  0  0
 22 25  1  0  0  0  0
 23 24  1  0  0  0  0
 25 26  2  0  0  0  0
 26 27  1  0  0  0  0
M  END
>  <CHROM.1>
-99.30987847,-71.91910354,67.75871113,176.30610022,-166.19950036,-39.57405776
-84.64825212,47.14445565,-29.56746867,-104.71276754,2.55469795,-1.20278819
2.86365671

>  <Name>
ligand

>  <RI>
0

>  <Rbt.Current_Directory>
/home/itssahil/PROJECTS/Mol_Feturizer/New_Systems/rnas/4L81

>  <Rbt.Executable>
rbdock ($Id: //depot/dev/client3/rdock/2013.1/src/exe/rbdock.cxx#4 $)

>  <Rbt.Library>
libRbt.so (2013.1, Build901 2013/11/27)

>  <Rbt.Parameter_File>
/export/apps/rDock/src/rDock_2013.1_src/data/scripts/dock_solv.prm

>  <Rbt.Receptor>
prm/pocket_docking_5.prm

>  <SCORE>
-12.787

>  <SCORE.INTER>
-12.159

>  <SCORE.INTER.CONST>
1

>  <SCORE.INTER.POLAR>
0

>  <SCORE.INTER.ROT>
7

>  <SCORE.INTER.SOLV>
7.91033

>  <SCORE.INTER.VDW>
-19.0094

>  <SCORE.INTER.norm>
-0.450334

>  <SCORE.INTRA>
-0.628027

>  <SCORE.INTRA.DIHEDRAL>
-1.68325

>  <SCORE.INTRA.DIHEDRAL.0>
8.34559

>  <SCORE.INTRA.POLAR>
0

>  <SCORE.INTRA.POLAR.0>
0

>  <SCORE.INTRA.REPUL>
0

>  <SCORE.INTRA.REPUL.0>
0

>  <SCORE.INTRA.SOLV>
2.13494

>  <SCORE.INTRA.SOLV.lig_0>
-48.829

>  <SCORE.INTRA.VDW>
-0.853876

>  <SCORE.INTRA.VDW.0>
-1.77092

>  <SCORE.INTRA.norm>
-0.0232603

>  <SCORE.RESTR>
0

>  <SCORE.RESTR.CAVITY>
0

>  <SCORE.RESTR.norm>
0

>  <SCORE.SYSTEM>
0

>  <SCORE.SYSTEM.CONST>
0

>  <SCORE.SYSTEM.DIHEDRAL>
0

>  <SCORE.SYSTEM.SOLV>
0

>  <SCORE.SYSTEM.norm>
0

>  <SCORE.heavy>
27

>  <SCORE.norm>
-0.473594

>  <RMSD>
6.086

$$$$
ligand
 OpenBabel11021811503D
libRbt.so/2013.1/901 2013/11/27
 27 29  0  0  0  0  0  0  0  0999 V2000
   49.2627  -23.6631 -105.1107 N   0  0  0  0  0  0  0  0  0  0  0  0
   49.2103  -24.6178 -103.9978 C   0  0  2  0  0  0  0  0  0  0  0  0
   49.2266  -23.8642 -102.6845 C   0  0  0  0  0  0  0  0  0  0  0  0
   48.3198  -24.0131 -101.8794 O   0  0  0  0  0  0  0  0  0  0  0  0
   50.4043  -25.5815 -104.0314 C   0  0  0  0  0  0  0  0  0  0  0  0
   50.3255  -26.5811 -102.8861 C   0  0  0  0  0  0  0  0  0  0  0  0
   48.7879  -27.5806 -102.8999 S   0  0  2  0  0  0  0  0  0  0  0  0
   49.0279  -28.7742 -101.5445 C   0  0  0  0  0  0  0  0  0  0  0  0
   49.2644  -28.6201 -104.2788 C   0  0  0  0  0  0  0  0  0  0  0  0
   48.1444  -28.8930 -105.2472 C   0  0  1  0  0  0  0  0  0  0  0  0
   48.6840  -29.6497 -106.3441 O   0  0  0  0  0  0  0  0  0  0  0  0
   47.2767  -29.8146 -104.4886 C   0  0  1  0  0  0  0  0  0  0  0  0
   46.2061  -29.0835 -103.8931 O   0  0  0  0  0  0  0  0  0  0  0  0
   46.7465  -30.7152 -105.5610 C   0  0  1  0  0  0  0  0  0  0  0  0
   45.5569  -30.1490 -106.1491 O   0  0  0  0  0  0  0  0  0  0  0  0
   47.8712  -30.8146 -106.6348 C   0  0  2  0  0  0  0  0  0  0  0  0
   50.1586  -23.1303 -102.4061 O   0  0  0  0  0  0  0  0  0  0  0  0
   51.7296  -33.4472 -104.1088 N   0  0  0  0  0  0  0  0  0  0  0  0
   51.1749  -32.2594 -103.7634 C   0  0  0  0  0  0  0  0  0  0  0  0
   50.1647  -31.7146 -104.4730 N   0  0  0  0  0  0  0  0  0  0  0  0
   49.7323  -32.2942 -105.6047 C   0  0  0  0  0  0  0  0  0  0  0  0
   50.3229  -33.5394 -106.0325 C   0  0  0  0  0  0  0  0  0  0  0  0
   51.3504  -34.1086 -105.2227 C   0  0  0  0  0  0  0  0  0  0  0  0
   51.9513  -35.3021 -105.5678 N   0  0  0  0  0  0  0  0  0  0  0  0
   49.7232  -33.8932 -107.1753 N   0  0  0  0  0  0  0  0  0  0  0  0
   48.8412  -32.9904 -107.4861 C   0  0  0  0  0  0  0  0  0  0  0  0
   48.7955  -31.9829 -106.5510 N   0  0  0  0  0  0  0  0  0  0  0  0
  2  1  1  6  0  0  0
  2  3  1  0  0  0  0
  2  5  1  0  0  0  0
  3  4  1  0  0  0  0
  3 17  1  0  0  0  0
  5  6  1  0  0  0  0
  7  6  1  1  0  0  0
  7  8  1  0  0  0  0
  7  9  1  0  0  0  0
 10  9  1  1  0  0  0
 10 11  1  0  0  0  0
 10 12  1  0  0  0  0
 11 16  1  0  0  0  0
 12 13  1  6  0  0  0
 12 14  1  0  0  0  0
 14 15  1  6  0  0  0
 14 16  1  0  0  0  0
 16 27  1  1  0  0  0
 18 19  2  0  0  0  0
 18 23  1  0  0  0  0
 19 20  1  0  0  0  0
 20 21  2  0  0  0  0
 21 22  1  0  0  0  0
 21 27  1  0  0  0  0
 22 23  2  0  0  0  0
 22 25  1  0  0  0  0
 23 24  1  0  0  0  0
 25 26  2  0  0  0  0
 26 27  1  0  0  0  0
M  END
>  <CHROM.1>
122.50405228,-179.03447327,58.34297531,174.87721750,-138.99775910,175.89370211
45.95269433,49.12870074,-29.31613463,-104.54295590,1.67425002,-0.47135156
0.36595540

>  <Name>
ligand

>  <RI>
0

>  <Rbt.Current_Directory>
/home/itssahil/PROJECTS/Mol_Feturizer/New_Systems/rnas/4L81

>  <Rbt.Executable>
rbdock ($Id: //depot/dev/client3/rdock/2013.1/src/exe/rbdock.cxx#4 $)

>  <Rbt.Library>
libRbt.so (2013.1, Build901 2013/11/27)

>  <Rbt.Parameter_File>
/export/apps/rDock/src/rDock_2013.1_src/data/scripts/dock_solv.prm

>  <Rbt.Receptor>
prm/pocket_docking_8.prm

>  <SCORE>
-9.6377

>  <SCORE.INTER>
-7.26219

>  <SCORE.INTER.CONST>
1

>  <SCORE.INTER.POLAR>
0

>  <SCORE.INTER.ROT>
7

>  <SCORE.INTER.SOLV>
7.00225

>  <SCORE.INTER.VDW>
-15.4422

>  <SCORE.INTER.norm>
-0.26897

>  <SCORE.INTRA>
-2.37551

>  <SCORE.INTRA.DIHEDRAL>
-0.921233

>  <SCORE.INTRA.DIHEDRAL.0>
8.34559

>  <SCORE.INTRA.POLAR>
0

>  <SCORE.INTRA.POLAR.0>
0

>  <SCORE.INTRA.REPUL>
0

>  <SCORE.INTRA.REPUL.0>
0

>  <SCORE.INTRA.SOLV>
-0.854005

>  <SCORE.INTRA.SOLV.lig_0>
-48.829

>  <SCORE.INTRA.VDW>
-1.48789

>  <SCORE.INTRA.VDW.0>
-1.77092

>  <SCORE.INTRA.norm>
-0.0879818

>  <SCORE.RESTR>
0

>  <SCORE.RESTR.CAVITY>
0

>  <SCORE.RESTR.norm>
0

>  <SCORE.SYSTEM>
0

>  <SCORE.SYSTEM.CONST>
0

>  <SCORE.SYSTEM.DIHEDRAL>
0

>  <SCORE.SYSTEM.SOLV>
0

>  <SCORE.SYSTEM.norm>
0

>  <SCORE.heavy>
27

>  <SCORE.norm>
-0.356952

>  <RMSD>
6.118

$$$$
ligand
 OpenBabel11021811503D
libRbt.so/2013.1/901 2013/11/27
 27 29  0  0  0  0  0  0  0  0999 V2000
   50.6394  -29.5176 -101.7714 N   0  0  0  0  0  0  0  0  0  0  0  0
   49.6712  -28.8962 -102.6819 C   0  0  2  0  0  0  0  0  0  0  0  0
   50.3447  -27.7778 -103.4489 C   0  0  0  0  0  0  0  0  0  0  0  0
   50.5420  -27.8882 -104.6496 O   0  0  0  0  0  0  0  0  0  0  0  0
   48.4729  -28.3202 -101.9152 C   0  0  0  0  0  0  0  0  0  0  0  0
   47.2814  -29.2649 -101.9840 C   0  0  0  0  0  0  0  0  0  0  0  0
   45.7829  -28.6041 -101.1588 S   0  0  2  0  0  0  0  0  0  0  0  0
   46.0116  -29.0531  -99.4079 C   0  0  0  0  0  0  0  0  0  0  0  0
   44.7020  -29.9437 -101.6547 C   0  0  0  0  0  0  0  0  0  0  0  0
   44.2347  -29.8482 -103.0827 C   0  0  1  0  0  0  0  0  0  0  0  0
   44.1075  -28.4548 -103.4131 O   0  0  0  0  0  0  0  0  0  0  0  0
   45.3964  -30.3543 -103.8390 C   0  0  1  0  0  0  0  0  0  0  0  0
   45.1960  -31.7295 -104.1615 O   0  0  0  0  0  0  0  0  0  0  0  0
   45.3560  -29.5257 -105.0856 C   0  0  1  0  0  0  0  0  0  0  0  0
   44.5014  -30.1425 -106.0707 O   0  0  0  0  0  0  0  0  0  0  0  0
   44.7683  -28.1450 -104.6659 C   0  0  2  0  0  0  0  0  0  0  0  0
   50.6647  -26.7472 -102.8829 O   0  0  0  0  0  0  0  0  0  0  0  0
   49.2367  -25.5073 -105.7947 N   0  0  0  0  0  0  0  0  0  0  0  0
   48.7272  -26.5859 -106.4388 C   0  0  0  0  0  0  0  0  0  0  0  0
   47.5522  -27.1407 -106.0745 N   0  0  0  0  0  0  0  0  0  0  0  0
   46.8881  -26.6920 -104.9969 C   0  0  0  0  0  0  0  0  0  0  0  0
   47.4153  -25.5712 -104.2565 C   0  0  0  0  0  0  0  0  0  0  0  0
   48.6320  -24.9797 -104.7093 C   0  0  0  0  0  0  0  0  0  0  0  0
   49.1867  -23.8992 -104.0540 N   0  0  0  0  0  0  0  0  0  0  0  0
   46.5757  -25.3334 -103.2419 N   0  0  0  0  0  0  0  0  0  0  0  0
   45.6044  -26.1960 -103.2867 C   0  0  0  0  0  0  0  0  0  0  0  0
   45.7383  -27.0556 -104.3520 N   0  0  0  0  0  0  0  0  0  0  0  0
  2  1  1  1  0  0  0
  2  3  1  0  0  0  0
  2  5  1  0  0  0  0
  3  4  1  0  0  0  0
  3 17  1  0  0  0  0
  5  6  1  0  0  0  0
  7  6  1  6  0  0  0
  7  8  1  0  0  0  0
  7  9  1  0  0  0  0
 10  9  1  1  0  0  0
 10 11  1  0  0  0  0
 10 12  1  0  0  0  0
 11 16  1  0  0  0  0
 12 13  1  6  0  0  0
 12 14  1  0  0  0  0
 14 15  1  6  0  0  0
 14 16  1  0  0  0  0
 16 27  1  1  0  0  0
 18 19  2  0  0  0  0
 18 23  1  0  0  0  0
 19 20  1  0  0  0  0
 20 21  2  0  0  0  0
 21 22  1  0  0  0  0
 21 27  1  0  0  0  0
 22 23  2  0  0  0  0
 22 25  1  0  0  0  0
 23 24  1  0  0  0  0
 25 26  2  0  0  0  0
 26 27  1  0  0  0  0
M  END
>  <CHROM.1>
111.39032958,-100.07380115,-177.13679573,-84.58365870,-77.95265450,-32.92200424
155.85835687,47.07831672,-27.98982822,-103.52771050,-0.55864833,0.44333396
2.17452247

>  <Name>
ligand

>  <RI>
0

>  <Rbt.Current_Directory>
/home/itssahil/PROJECTS/Mol_Feturizer/New_Systems/rnas/4L81

>  <Rbt.Executable>
rbdock ($Id: //depot/dev/client3/rdock/2013.1/src/exe/rbdock.cxx#4 $)

>  <Rbt.Library>
libRbt.so (2013.1, Build901 2013/11/27)

>  <Rbt.Parameter_File>
/export/apps/rDock/src/rDock_2013.1_src/data/scripts/dock_solv.prm

>  <Rbt.Receptor>
prm/pocket_docking_3.prm

>  <SCORE>
-9.80719

>  <SCORE.INTER>
-8.23003

>  <SCORE.INTER.CONST>
1

>  <SCORE.INTER.POLAR>
0

>  <SCORE.INTER.ROT>
7

>  <SCORE.INTER.SOLV>
9.38168

>  <SCORE.INTER.VDW>
-16.8806

>  <SCORE.INTER.norm>
-0.304816

>  <SCORE.INTRA>
-1.5803

>  <SCORE.INTRA.DIHEDRAL>
2.51254

>  <SCORE.INTRA.DIHEDRAL.0>
8.34559

>  <SCORE.INTRA.POLAR>
0

>  <SCORE.INTRA.POLAR.0>
0

>  <SCORE.INTRA.REPUL>
0

>  <SCORE.INTRA.REPUL.0>
0

>  <SCORE.INTRA.SOLV>
-0.011785

>  <SCORE.INTRA.SOLV.lig_0>
-48.829

>  <SCORE.INTRA.VDW>
-2.83068

>  <SCORE.INTRA.VDW.0>
-1.77092

>  <SCORE.INTRA.norm>
-0.0585296

>  <SCORE.RESTR>
0.00313022

>  <SCORE.RESTR.CAVITY>
0.00313022

>  <SCORE.RESTR.norm>
0.000115934

>  <SCORE.SYSTEM>
0

>  <SCORE.SYSTEM.CONST>
0

>  <SCORE.SYSTEM.DIHEDRAL>
0

>  <SCORE.SYSTEM.SOLV>
0

>  <SCORE.SYSTEM.norm>
0

>  <SCORE.heavy>
27

>  <SCORE.norm>
-0.363229

>  <RMSD>
6.128

$$$$
ligand
 OpenBabel11021811503D
libRbt.so/2013.1/901 2013/11/27
 27 29  0  0  0  0  0  0  0  0999 V2000
   49.1326  -23.3697 -104.8531 N   0  0  0  0  0  0  0  0  0  0  0  0
   48.9852  -24.7260 -104.3132 C   0  0  2  0  0  0  0  0  0  0  0  0
   48.6103  -24.6486 -102.8482 C   0  0  0  0  0  0  0  0  0  0  0  0
   48.8550  -23.6399 -102.2037 O   0  0  0  0  0  0  0  0  0  0  0  0
   50.2872  -25.5268 -104.4503 C   0  0  0  0  0  0  0  0  0  0  0  0
   49.9934  -27.0018 -104.6846 C   0  0  0  0  0  0  0  0  0  0  0  0
   49.5536  -27.9066 -103.1512 S   0  0  2  0  0  0  0  0  0  0  0  0
   50.9548  -29.0425 -102.8944 C   0  0  0  0  0  0  0  0  0  0  0  0
   48.4110  -29.0411 -103.9362 C   0  0  0  0  0  0  0  0  0  0  0  0
   46.9712  -28.8041 -103.5653 C   0  0  1  0  0  0  0  0  0  0  0  0
   46.6959  -27.4035 -103.7373 O   0  0  0  0  0  0  0  0  0  0  0  0
   46.2400  -29.5097 -104.6355 C   0  0  1  0  0  0  0  0  0  0  0  0
   45.8513  -30.8038 -104.1774 O   0  0  0  0  0  0  0  0  0  0  0  0
   45.0293  -28.6484 -104.8215 C   0  0  1  0  0  0  0  0  0  0  0  0
   43.9861  -29.0448 -103.9073 O   0  0  0  0  0  0  0  0  0  0  0  0
   45.4844  -27.1921 -104.5051 C   0  0  2  0  0  0  0  0  0  0  0  0
   48.0330  -25.5767 -102.3094 O   0  0  0  0  0  0  0  0  0  0  0  0
   48.3646  -26.4578 -108.9055 N   0  0  0  0  0  0  0  0  0  0  0  0
   48.3780  -27.5309 -108.0770 C   0  0  0  0  0  0  0  0  0  0  0  0
   47.5600  -27.6117 -107.0068 N   0  0  0  0  0  0  0  0  0  0  0  0
   46.7621  -26.5835 -106.6756 C   0  0  0  0  0  0  0  0  0  0  0  0
   46.7459  -25.4039 -107.5067 C   0  0  0  0  0  0  0  0  0  0  0  0
   47.5859  -25.3830 -108.6596 C   0  0  0  0  0  0  0  0  0  0  0  0
   47.6123  -24.2909 -109.5030 N   0  0  0  0  0  0  0  0  0  0  0  0
   45.8821  -24.5416 -106.9579 N   0  0  0  0  0  0  0  0  0  0  0  0
   45.3832  -25.0716 -105.8811 C   0  0  0  0  0  0  0  0  0  0  0  0
   45.8823  -26.3338 -105.6589 N   0  0  0  0  0  0  0  0  0  0  0  0
  2  1  1  1  0  0  0
  2  3  1  0  0  0  0
  2  5  1  0  0  0  0
  3  4  1  0  0  0  0
  3 17  1  0  0  0  0
  5  6  1  0  0  0  0
  7  6  1  6  0  0  0
  7  8  1  0  0  0  0
  7  9  1  0  0  0  0
 10  9  1  6  0  0  0
 10 11  1  0  0  0  0
 10 12  1  0  0  0  0
 11 16  1  0  0  0  0
 12 13  1  1  0  0  0
 12 14  1  0  0  0  0
 14 15  1  1  0  0  0
 14 16  1  0  0  0  0
 16 27  1  6  0  0  0
 18 19  2  0  0  0  0
 18 23  1  0  0  0  0
 19 20  1  0  0  0  0
 20 21  2  0  0  0  0
 21 22  1  0  0  0  0
 21 27  1  0  0  0  0
 22 23  2  0  0  0  0
 22 25  1  0  0  0  0
 23 24  1  0  0  0  0
 25 26  2  0  0  0  0
 26 27  1  0  0  0  0
M  END
>  <CHROM.1>
-21.69692198,-146.87672608,-79.16120371,-112.33130117,-110.41744351,49.49219689
62.22745195,47.62974481,-26.79909178,-104.99644341,-1.67441493,0.76245379
2.30120287

>  <Name>
ligand

>  <RI>
0

>  <Rbt.Current_Directory>
/home/itssahil/PROJECTS/Mol_Feturizer/New_Systems/rnas/4L81

>  <Rbt.Executable>
rbdock ($Id: //depot/dev/client3/rdock/2013.1/src/exe/rbdock.cxx#4 $)

>  <Rbt.Library>
libRbt.so (2013.1, Build901 2013/11/27)

>  <Rbt.Parameter_File>
/export/apps/rDock/src/rDock_2013.1_src/data/scripts/dock_solv.prm

>  <Rbt.Receptor>
prm/pocket_docking_5.prm

>  <SCORE>
-8.17605

>  <SCORE.INTER>
-6.6772

>  <SCORE.INTER.CONST>
1

>  <SCORE.INTER.POLAR>
0

>  <SCORE.INTER.ROT>
7

>  <SCORE.INTER.SOLV>
5.54577

>  <SCORE.INTER.VDW>
-14.5667

>  <SCORE.INTER.norm>
-0.247304

>  <SCORE.INTRA>
-1.49885

>  <SCORE.INTRA.DIHEDRAL>
7.03241

>  <SCORE.INTRA.DIHEDRAL.0>
8.34559

>  <SCORE.INTRA.POLAR>
0

>  <SCORE.INTRA.POLAR.0>
0

>  <SCORE.INTRA.REPUL>
0

>  <SCORE.INTRA.REPUL.0>
0

>  <SCORE.INTRA.SOLV>
-0.770706

>  <SCORE.INTRA.SOLV.lig_0>
-48.829

>  <SCORE.INTRA.VDW>
-4.6297

>  <SCORE.INTRA.VDW.0>
-1.77092

>  <SCORE.INTRA.norm>
-0.0555129

>  <SCORE.RESTR>
0

>  <SCORE.RESTR.CAVITY>
0

>  <SCORE.RESTR.norm>
0

>  <SCORE.SYSTEM>
0

>  <SCORE.SYSTEM.CONST>
0

>  <SCORE.SYSTEM.DIHEDRAL>
0

>  <SCORE.SYSTEM.SOLV>
0

>  <SCORE.SYSTEM.norm>
0

>  <SCORE.heavy>
27

>  <SCORE.norm>
-0.302817

>  <RMSD>
6.138

$$$$
ligand
 OpenBabel11021811503D
libRbt.so/2013.1/901 2013/11/27
 27 29  0  0  0  0  0  0  0  0999 V2000
   45.8860  -31.0804 -101.4024 N   0  0  0  0  0  0  0  0  0  0  0  0
   46.8654  -30.4233 -100.5296 C   0  0  2  0  0  0  0  0  0  0  0  0
   46.2767  -29.1379  -99.9874 C   0  0  0  0  0  0  0  0  0  0  0  0
   46.4949  -28.8008  -98.8335 O   0  0  0  0  0  0  0  0  0  0  0  0
   48.1586  -30.0953 -101.2881 C   0  0  0  0  0  0  0  0  0  0  0  0
   48.0435  -30.4948 -102.7523 C   0  0  0  0  0  0  0  0  0  0  0  0
   48.4456  -32.2580 -103.0572 S   0  0  2  0  0  0  0  0  0  0  0  0
   50.2534  -32.3390 -102.8457 C   0  0  0  0  0  0  0  0  0  0  0  0
   48.3752  -32.1496 -104.8438 C   0  0  0  0  0  0  0  0  0  0  0  0
   46.9771  -32.2058 -105.3996 C   0  0  1  0  0  0  0  0  0  0  0  0
   46.3149  -30.9776 -105.0532 O   0  0  0  0  0  0  0  0  0  0  0  0
   47.2051  -32.1628 -106.8569 C   0  0  1  0  0  0  0  0  0  0  0  0
   47.1666  -33.4867 -107.3872 O   0  0  0  0  0  0  0  0  0  0  0  0
   46.0246  -31.3818 -107.3455 C   0  0  1  0  0  0  0  0  0  0  0  0
   44.9075  -32.2613 -107.5904 O   0  0  0  0  0  0  0  0  0  0  0  0
   45.6692  -30.3804 -106.2058 C   0  0  2  0  0  0  0  0  0  0  0  0
   45.6094  -28.4140 -100.7055 O   0  0  0  0  0  0  0  0  0  0  0  0
   45.0856  -25.1358 -105.6131 N   0  0  0  0  0  0  0  0  0  0  0  0
   44.1620  -26.1021 -105.3869 C   0  0  0  0  0  0  0  0  0  0  0  0
   44.4529  -27.4113 -105.5368 N   0  0  0  0  0  0  0  0  0  0  0  0
   45.6513  -27.7972 -106.0043 C   0  0  0  0  0  0  0  0  0  0  0  0
   46.6515  -26.7992 -106.2977 C   0  0  0  0  0  0  0  0  0  0  0  0
   46.3204  -25.4300 -106.0722 C   0  0  0  0  0  0  0  0  0  0  0  0
   47.2328  -24.4251 -106.3223 N   0  0  0  0  0  0  0  0  0  0  0  0
   47.7358  -27.4418 -106.7473 N   0  0  0  0  0  0  0  0  0  0  0  0
   47.4929  -28.7186 -106.7645 C   0  0  0  0  0  0  0  0  0  0  0  0
   46.2256  -29.0000 -106.3101 N   0  0  0  0  0  0  0  0  0  0  0  0
  2  1  1  6  0  0  0
  2  3  1  0  0  0  0
  2  5  1  0  0  0  0
  3  4  1  0  0  0  0
  3 17  1  0  0  0  0
  5  6  1  0  0  0  0
  7  6  1  1  0  0  0
  7  8  1  0  0  0  0
  7  9  1  0  0  0  0
 10  9  1  1  0  0  0
 10 11  1  0  0  0  0
 10 12  1  0  0  0  0
 11 16  1  0  0  0  0
 12 13  1  6  0  0  0
 12 14  1  0  0  0  0
 14 15  1  1  0  0  0
 14 16  1  0  0  0  0
 16 27  1  6  0  0  0
 18 19  2  0  0  0  0
 18 23  1  0  0  0  0
 19 20  1  0  0  0  0
 20 21  2  0  0  0  0
 21 22  1  0  0  0  0
 21 27  1  0  0  0  0
 22 23  2  0  0  0  0
 22 25  1  0  0  0  0
 23 24  1  0  0  0  0
 25 26  2  0  0  0  0
 26 27  1  0  0  0  0
M  END
>  <CHROM.1>
141.40171352,2.23810725,-84.70077962,-72.34229940,-80.76216095,70.27576577
-105.54860846,46.75190972,-29.70494581,-104.44486859,0.37339936,-1.26496073
1.20604294

>  <Name>
ligand

>  <RI>
0

>  <Rbt.Current_Directory>
/home/itssahil/PROJECTS/Mol_Feturizer/New_Systems/rnas/4L81

>  <Rbt.Executable>
rbdock ($Id: //depot/dev/client3/rdock/2013.1/src/exe/rbdock.cxx#4 $)

>  <Rbt.Library>
libRbt.so (2013.1, Build901 2013/11/27)

>  <Rbt.Parameter_File>
/export/apps/rDock/src/rDock_2013.1_src/data/scripts/dock_solv.prm

>  <Rbt.Receptor>
prm/pocket_docking_5.prm

>  <SCORE>
-9.42058

>  <SCORE.INTER>
-12.3584

>  <SCORE.INTER.CONST>
1

>  <SCORE.INTER.POLAR>
0

>  <SCORE.INTER.ROT>
7

>  <SCORE.INTER.SOLV>
11.9057

>  <SCORE.INTER.VDW>
-20.4742

>  <SCORE.INTER.norm>
-0.457719

>  <SCORE.INTRA>
2.93782

>  <SCORE.INTRA.DIHEDRAL>
3.63779

>  <SCORE.INTRA.DIHEDRAL.0>
8.34559

>  <SCORE.INTRA.POLAR>
0

>  <SCORE.INTRA.POLAR.0>
0

>  <SCORE.INTRA.REPUL>
0.000389612

>  <SCORE.INTRA.REPUL.0>
0

>  <SCORE.INTRA.SOLV>
1.56225

>  <SCORE.INTRA.SOLV.lig_0>
-48.829

>  <SCORE.INTRA.VDW>
0.335851

>  <SCORE.INTRA.VDW.0>
-1.77092

>  <SCORE.INTRA.norm>
0.108808

>  <SCORE.RESTR>
0

>  <SCORE.RESTR.CAVITY>
0

>  <SCORE.RESTR.norm>
0

>  <SCORE.SYSTEM>
0

>  <SCORE.SYSTEM.CONST>
0

>  <SCORE.SYSTEM.DIHEDRAL>
0

>  <SCORE.SYSTEM.SOLV>
0

>  <SCORE.SYSTEM.norm>
0

>  <SCORE.heavy>
27

>  <SCORE.norm>
-0.348911

>  <RMSD>
6.161

$$$$
ligand
 OpenBabel11021811503D
libRbt.so/2013.1/901 2013/11/27
 27 29  0  0  0  0  0  0  0  0999 V2000
   47.2226  -23.8506 -111.0017 N   0  0  0  0  0  0  0  0  0  0  0  0
   48.2840  -24.4590 -110.1916 C   0  0  2  0  0  0  0  0  0  0  0  0
   48.4433  -25.9143 -110.5782 C   0  0  0  0  0  0  0  0  0  0  0  0
   47.6280  -26.7428 -110.2020 O   0  0  0  0  0  0  0  0  0  0  0  0
   47.9607  -24.3763 -108.6936 C   0  0  0  0  0  0  0  0  0  0  0  0
   49.1482  -24.8323 -107.8577 C   0  0  0  0  0  0  0  0  0  0  0  0
   48.7162  -25.1715 -106.1079 S   0  0  2  0  0  0  0  0  0  0  0  0
   50.2545  -25.8415 -105.3977 C   0  0  0  0  0  0  0  0  0  0  0  0
   47.8608  -26.7117 -106.4317 C   0  0  0  0  0  0  0  0  0  0  0  0
   46.3914  -26.6686 -106.1062 C   0  0  1  0  0  0  0  0  0  0  0  0
   45.7178  -27.5862 -106.9844 O   0  0  0  0  0  0  0  0  0  0  0  0
   46.3401  -27.2649 -104.7573 C   0  0  1  0  0  0  0  0  0  0  0  0
   46.2998  -26.2293 -103.7769 O   0  0  0  0  0  0  0  0  0  0  0  0
   45.0356  -27.9998 -104.7785 C   0  0  1  0  0  0  0  0  0  0  0  0
   43.9595  -27.1235 -104.3844 O   0  0  0  0  0  0  0  0  0  0  0  0
   44.8270  -28.4642 -106.2512 C   0  0  2  0  0  0  0  0  0  0  0  0
   49.3653  -26.2650 -111.2937 O   0  0  0  0  0  0  0  0  0  0  0  0
   48.5179  -32.2817 -106.2125 N   0  0  0  0  0  0  0  0  0  0  0  0
   48.6325  -31.0149 -105.7434 C   0  0  0  0  0  0  0  0  0  0  0  0
   47.5976  -30.1496 -105.7757 N   0  0  0  0  0  0  0  0  0  0  0  0
   46.4373  -30.4913 -106.3593 C   0  0  0  0  0  0  0  0  0  0  0  0
   46.2848  -31.8169 -106.9089 C   0  0  0  0  0  0  0  0  0  0  0  0
   47.3857  -32.7181 -106.8039 C   0  0  0  0  0  0  0  0  0  0  0  0
   47.3046  -34.0037 -107.2994 N   0  0  0  0  0  0  0  0  0  0  0  0
   45.0538  -31.8939 -107.4281 N   0  0  0  0  0  0  0  0  0  0  0  0
   44.4519  -30.7545 -107.2579 C   0  0  0  0  0  0  0  0  0  0  0  0
   45.2524  -29.8517 -106.5977 N   0  0  0  0  0  0  0  0  0  0  0  0
  2  1  1  6  0  0  0
  2  3  1  0  0  0  0
  2  5  1  0  0  0  0
  3  4  1  0  0  0  0
  3 17  1  0  0  0  0
  5  6  1  0  0  0  0
  7  6  1  6  0  0  0
  7  8  1  0  0  0  0
  7  9  1  0  0  0  0
 10  9  1  6  0  0  0
 10 11  1  0  0  0  0
 10 12  1  0  0  0  0
 11 16  1  0  0  0  0
 12 13  1  1  0  0  0
 12 14  1  0  0  0  0
 14 15  1  6  0  0  0
 14 16  1  0  0  0  0
 16 27  1  1  0  0  0
 18 19  2  0  0  0  0
 18 23  1  0  0  0  0
 19 20  1  0  0  0  0
 20 21  2  0  0  0  0
 21 22  1  0  0  0  0
 21 27  1  0  0  0  0
 22 23  2  0  0  0  0
 22 25  1  0  0  0  0
 23 24  1  0  0  0  0
 25 26  2  0  0  0  0
 26 27  1  0  0  0  0
M  END
>  <CHROM.1>
-75.84238381,-172.13403217,-165.29139772,174.72363708,-115.41873941,150.64505663
63.06170149,47.13934806,-27.93066023,-107.04021474,-0.84904357,-1.13553169
-2.82715786

>  <Name>
ligand

>  <RI>
0

>  <Rbt.Current_Directory>
/home/itssahil/PROJECTS/Mol_Feturizer/New_Systems/rnas/4L81

>  <Rbt.Executable>
rbdock ($Id: //depot/dev/client3/rdock/2013.1/src/exe/rbdock.cxx#4 $)

>  <Rbt.Library>
libRbt.so (2013.1, Build901 2013/11/27)

>  <Rbt.Parameter_File>
/export/apps/rDock/src/rDock_2013.1_src/data/scripts/dock_solv.prm

>  <Rbt.Receptor>
prm/pocket_docking_8.prm

>  <SCORE>
-8.99874

>  <SCORE.INTER>
-7.96399

>  <SCORE.INTER.CONST>
1

>  <SCORE.INTER.POLAR>
0

>  <SCORE.INTER.ROT>
7

>  <SCORE.INTER.SOLV>
12.8908

>  <SCORE.INTER.VDW>
-17.8729

>  <SCORE.INTER.norm>
-0.294963

>  <SCORE.INTRA>
-1.03475

>  <SCORE.INTRA.DIHEDRAL>
2.31785

>  <SCORE.INTRA.DIHEDRAL.0>
8.34559

>  <SCORE.INTRA.POLAR>
0

>  <SCORE.INTRA.POLAR.0>
0

>  <SCORE.INTRA.REPUL>
0

>  <SCORE.INTRA.REPUL.0>
0

>  <SCORE.INTRA.SOLV>
-1.1422

>  <SCORE.INTRA.SOLV.lig_0>
-48.829

>  <SCORE.INTRA.VDW>
-1.62257

>  <SCORE.INTRA.VDW.0>
-1.77092

>  <SCORE.INTRA.norm>
-0.0383239

>  <SCORE.RESTR>
0

>  <SCORE.RESTR.CAVITY>
0

>  <SCORE.RESTR.norm>
0

>  <SCORE.SYSTEM>
0

>  <SCORE.SYSTEM.CONST>
0

>  <SCORE.SYSTEM.DIHEDRAL>
0

>  <SCORE.SYSTEM.SOLV>
0

>  <SCORE.SYSTEM.norm>
0

>  <SCORE.heavy>
27

>  <SCORE.norm>
-0.333287

>  <RMSD>
6.189

$$$$
ligand
 OpenBabel11021811503D
libRbt.so/2013.1/901 2013/11/27
 27 29  0  0  0  0  0  0  0  0999 V2000
   49.0031  -34.2026 -108.1367 N   0  0  0  0  0  0  0  0  0  0  0  0
   49.0754  -34.1563 -106.6720 C   0  0  2  0  0  0  0  0  0  0  0  0
   47.8874  -33.3887 -106.1315 C   0  0  0  0  0  0  0  0  0  0  0  0
   47.1032  -32.8503 -106.8983 O   0  0  0  0  0  0  0  0  0  0  0  0
   50.3650  -33.4730 -106.1973 C   0  0  0  0  0  0  0  0  0  0  0  0
   50.7688  -33.9768 -104.8189 C   0  0  0  0  0  0  0  0  0  0  0  0
   51.4908  -32.6715 -103.7521 S   0  0  2  0  0  0  0  0  0  0  0  0
   52.0133  -33.5677 -102.2543 C   0  0  0  0  0  0  0  0  0  0  0  0
   49.9228  -32.0335 -103.1665 C   0  0  0  0  0  0  0  0  0  0  0  0
   50.0587  -30.9112 -102.1721 C   0  0  1  0  0  0  0  0  0  0  0  0
   50.7734  -29.8398 -102.8109 O   0  0  0  0  0  0  0  0  0  0  0  0
   48.6664  -30.4494 -102.0114 C   0  0  1  0  0  0  0  0  0  0  0  0
   48.0978  -31.0389 -100.8432 O   0  0  0  0  0  0  0  0  0  0  0  0
   48.8362  -28.9755 -101.8094 C   0  0  1  0  0  0  0  0  0  0  0  0
   49.0486  -28.6816 -100.4130 O   0  0  0  0  0  0  0  0  0  0  0  0
   50.0958  -28.5705 -102.6324 C   0  0  2  0  0  0  0  0  0  0  0  0
   47.6856  -33.3296 -104.9312 O   0  0  0  0  0  0  0  0  0  0  0  0
   48.2133  -29.2043 -107.5571 N   0  0  0  0  0  0  0  0  0  0  0  0
   48.2072  -30.1075 -106.5462 C   0  0  0  0  0  0  0  0  0  0  0  0
   48.6830  -29.8042 -105.3203 N   0  0  0  0  0  0  0  0  0  0  0  0
   49.2634  -28.6161 -105.0858 C   0  0  0  0  0  0  0  0  0  0  0  0
   49.3288  -27.6387 -106.1455 C   0  0  0  0  0  0  0  0  0  0  0  0
   48.7639  -27.9806 -107.4102 C   0  0  0  0  0  0  0  0  0  0  0  0
   48.7833  -27.0898 -108.4641 N   0  0  0  0  0  0  0  0  0  0  0  0
   49.9521  -26.5607 -105.6556 N   0  0  0  0  0  0  0  0  0  0  0  0
   50.2769  -26.7871 -104.4176 C   0  0  0  0  0  0  0  0  0  0  0  0
   49.8717  -28.0358 -104.0072 N   0  0  0  0  0  0  0  0  0  0  0  0
  2  1  1  6  0  0  0
  2  3  1  0  0  0  0
  2  5  1  0  0  0  0
  3  4  1  0  0  0  0
  3 17  1  0  0  0  0
  5  6  1  0  0  0  0
  7  6  1  6  0  0  0
  7  8  1  0  0  0  0
  7  9  1  0  0  0  0
 10  9  1  6  0  0  0
 10 11  1  0  0  0  0
 10 12  1  0  0  0  0
 11 16  1  0  0  0  0
 12 13  1  1  0  0  0
 12 14  1  0  0  0  0
 14 15  1  1  0  0  0
 14 16  1  0  0  0  0
 16 27  1  6  0  0  0
 18 19  2  0  0  0  0
 18 23  1  0  0  0  0
 19 20  1  0  0  0  0
 20 21  2  0  0  0  0
 21 22  1  0  0  0  0
 21 27  1  0  0  0  0
 22 23  2  0  0  0  0
 22 25  1  0  0  0  0
 23 24  1  0  0  0  0
 25 26  2  0  0  0  0
 26 27  1  0  0  0  0
M  END
>  <CHROM.1>
-4.67796007,-153.22988181,-143.16205419,-175.03360449,178.05556726,59.78214094
53.98363698,49.44002670,-30.68324101,-104.57020585,1.46396133,1.31241331
-2.85423966

>  <Name>
ligand

>  <RI>
0

>  <Rbt.Current_Directory>
/home/itssahil/PROJECTS/Mol_Feturizer/New_Systems/rnas/4L81

>  <Rbt.Executable>
rbdock ($Id: //depot/dev/client3/rdock/2013.1/src/exe/rbdock.cxx#4 $)

>  <Rbt.Library>
libRbt.so (2013.1, Build901 2013/11/27)

>  <Rbt.Parameter_File>
/export/apps/rDock/src/rDock_2013.1_src/data/scripts/dock_solv.prm

>  <Rbt.Receptor>
prm/pocket_docking_7.prm

>  <SCORE>
-11.4862

>  <SCORE.INTER>
-9.0454

>  <SCORE.INTER.CONST>
1

>  <SCORE.INTER.POLAR>
0

>  <SCORE.INTER.ROT>
7

>  <SCORE.INTER.SOLV>
11.6741

>  <SCORE.INTER.VDW>
-18.1883

>  <SCORE.INTER.norm>
-0.335015

>  <SCORE.INTRA>
-2.44076

>  <SCORE.INTRA.DIHEDRAL>
1.77501

>  <SCORE.INTRA.DIHEDRAL.0>
8.34559

>  <SCORE.INTRA.POLAR>
0

>  <SCORE.INTRA.POLAR.0>
0

>  <SCORE.INTRA.REPUL>
0

>  <SCORE.INTRA.REPUL.0>
0

>  <SCORE.INTRA.SOLV>
-1.19972

>  <SCORE.INTRA.SOLV.lig_0>
-48.829

>  <SCORE.INTRA.VDW>
-2.72841

>  <SCORE.INTRA.VDW.0>
-1.77092

>  <SCORE.INTRA.norm>
-0.0903987

>  <SCORE.RESTR>
0

>  <SCORE.RESTR.CAVITY>
0

>  <SCORE.RESTR.norm>
0

>  <SCORE.SYSTEM>
0

>  <SCORE.SYSTEM.CONST>
0

>  <SCORE.SYSTEM.DIHEDRAL>
0

>  <SCORE.SYSTEM.SOLV>
0

>  <SCORE.SYSTEM.norm>
0

>  <SCORE.heavy>
27

>  <SCORE.norm>
-0.425413

>  <RMSD>
6.190

$$$$
ligand
 OpenBabel11021811503D
libRbt.so/2013.1/901 2013/11/27
 27 29  0  0  0  0  0  0  0  0999 V2000
   51.5692  -29.7399 -102.6504 N   0  0  0  0  0  0  0  0  0  0  0  0
   50.8438  -29.9401 -101.3908 C   0  0  2  0  0  0  0  0  0  0  0  0
   50.9287  -31.3964 -100.9849 C   0  0  0  0  0  0  0  0  0  0  0  0
   50.5490  -31.7490  -99.8784 O   0  0  0  0  0  0  0  0  0  0  0  0
   49.3662  -29.5490 -101.5286 C   0  0  0  0  0  0  0  0  0  0  0  0
   48.7561  -30.1696 -102.7774 C   0  0  0  0  0  0  0  0  0  0  0  0
   48.3045  -31.9343 -102.5642 S   0  0  2  0  0  0  0  0  0  0  0  0
   49.0632  -32.7584 -104.0011 C   0  0  0  0  0  0  0  0  0  0  0  0
   46.6329  -31.7659 -103.1857 C   0  0  0  0  0  0  0  0  0  0  0  0
   45.6646  -31.2086 -102.1765 C   0  0  1  0  0  0  0  0  0  0  0  0
   46.1781  -29.9444 -101.7237 O   0  0  0  0  0  0  0  0  0  0  0  0
   44.4762  -30.9084 -102.9983 C   0  0  1  0  0  0  0  0  0  0  0  0
   43.5369  -31.9768 -102.8905 O   0  0  0  0  0  0  0  0  0  0  0  0
   43.9303  -29.6794 -102.3398 C   0  0  1  0  0  0  0  0  0  0  0  0
   43.0405  -30.0401 -101.2630 O   0  0  0  0  0  0  0  0  0  0  0  0
   45.1620  -28.9114 -101.7731 C   0  0  2  0  0  0  0  0  0  0  0  0
   51.3444  -32.2319 -101.7685 O   0  0  0  0  0  0  0  0  0  0  0  0
   44.6568  -25.4366 -105.7567 N   0  0  0  0  0  0  0  0  0  0  0  0
   43.7522  -26.3571 -105.3417 C   0  0  0  0  0  0  0  0  0  0  0  0
   43.9893  -27.1577 -104.2816 N   0  0  0  0  0  0  0  0  0  0  0  0
   45.1757  -27.1282 -103.6531 C   0  0  0  0  0  0  0  0  0  0  0  0
   46.1840  -26.1918 -104.0878 C   0  0  0  0  0  0  0  0  0  0  0  0
   45.8709  -25.3256 -105.1773 C   0  0  0  0  0  0  0  0  0  0  0  0
   46.7850  -24.3997 -105.6377 N   0  0  0  0  0  0  0  0  0  0  0  0
   47.2568  -26.3708 -103.3082 N   0  0  0  0  0  0  0  0  0  0  0  0
   47.0061  -27.3203 -102.4567 C   0  0  0  0  0  0  0  0  0  0  0  0
   45.7352  -27.8213 -102.6154 N   0  0  0  0  0  0  0  0  0  0  0  0
  2  1  1  6  0  0  0
  2  3  1  0  0  0  0
  2  5  1  0  0  0  0
  3  4  1  0  0  0  0
  3 17  1  0  0  0  0
  5  6  1  0  0  0  0
  7  6  1  6  0  0  0
  7  8  1  0  0  0  0
  7  9  1  0  0  0  0
 10  9  1  6  0  0  0
 10 11  1  0  0  0  0
 10 12  1  0  0  0  0
 11 16  1  0  0  0  0
 12 13  1  1  0  0  0
 12 14  1  0  0  0  0
 14 15  1  1  0  0  0
 14 16  1  0  0  0  0
 16 27  1  6  0  0  0
 18 19  2  0  0  0  0
 18 23  1  0  0  0  0
 19 20  1  0  0  0  0
 20 21  2  0  0  0  0
 21 22  1  0  0  0  0
 21 27  1  0  0  0  0
 22 23  2  0  0  0  0
 22 25  1  0  0  0  0
 23 24  1  0  0  0  0
 25 26  2  0  0  0  0
 26 27  1  0  0  0  0
M  END
>  <CHROM.1>
170.09170669,48.21523322,79.30461721,-129.68938018,-79.89804416,56.29583585
132.62917534,46.97607698,-29.39828062,-102.83617835,-0.81126301,-0.08387324
-0.39683305

>  <Name>
ligand

>  <RI>
0

>  <Rbt.Current_Directory>
/home/itssahil/PROJECTS/Mol_Feturizer/New_Systems/rnas/4L81

>  <Rbt.Executable>
rbdock ($Id: //depot/dev/client3/rdock/2013.1/src/exe/rbdock.cxx#4 $)

>  <Rbt.Library>
libRbt.so (2013.1, Build901 2013/11/27)

>  <Rbt.Parameter_File>
/export/apps/rDock/src/rDock_2013.1_src/data/scripts/dock_solv.prm

>  <Rbt.Receptor>
prm/pocket_docking_3.prm

>  <SCORE>
-15.0315

>  <SCORE.INTER>
-14.7156

>  <SCORE.INTER.CONST>
1

>  <SCORE.INTER.POLAR>
0

>  <SCORE.INTER.ROT>
7

>  <SCORE.INTER.SOLV>
15.1741

>  <SCORE.INTER.VDW>
-23.1351

>  <SCORE.INTER.norm>
-0.545022

>  <SCORE.INTRA>
-0.316211

>  <SCORE.INTRA.DIHEDRAL>
1.42259

>  <SCORE.INTRA.DIHEDRAL.0>
8.34559

>  <SCORE.INTRA.POLAR>
0

>  <SCORE.INTRA.POLAR.0>
0

>  <SCORE.INTRA.REPUL>
0

>  <SCORE.INTRA.REPUL.0>
0

>  <SCORE.INTRA.SOLV>
0.725146

>  <SCORE.INTRA.SOLV.lig_0>
-48.829

>  <SCORE.INTRA.VDW>
-1.39008

>  <SCORE.INTRA.VDW.0>
-1.77092

>  <SCORE.INTRA.norm>
-0.0117115

>  <SCORE.RESTR>
0.000267341

>  <SCORE.RESTR.CAVITY>
0.000267341

>  <SCORE.RESTR.norm>
9.90153e-06

>  <SCORE.SYSTEM>
0

>  <SCORE.SYSTEM.CONST>
0

>  <SCORE.SYSTEM.DIHEDRAL>
0

>  <SCORE.SYSTEM.SOLV>
0

>  <SCORE.SYSTEM.norm>
0

>  <SCORE.heavy>
27

>  <SCORE.norm>
-0.556723

>  <RMSD>
6.193

$$$$
ligand
 OpenBabel11021811503D
libRbt.so/2013.1/901 2013/11/27
 27 29  0  0  0  0  0  0  0  0999 V2000
   49.7828  -29.0694 -102.7853 N   0  0  0  0  0  0  0  0  0  0  0  0
   50.8764  -29.8563 -102.2043 C   0  0  2  0  0  0  0  0  0  0  0  0
   50.9334  -31.2133 -102.8737 C   0  0  0  0  0  0  0  0  0  0  0  0
   51.9958  -31.8098 -102.9641 O   0  0  0  0  0  0  0  0  0  0  0  0
   50.6812  -30.0556 -100.6952 C   0  0  0  0  0  0  0  0  0  0  0  0
   49.3583  -30.7516 -100.4077 C   0  0  0  0  0  0  0  0  0  0  0  0
   47.9022  -29.6559 -100.6135 S   0  0  2  0  0  0  0  0  0  0  0  0
   46.8638  -30.0286  -99.1635 C   0  0  0  0  0  0  0  0  0  0  0  0
   47.0755  -30.6850 -101.8244 C   0  0  0  0  0  0  0  0  0  0  0  0
   45.5734  -30.5996 -101.7678 C   0  0  1  0  0  0  0  0  0  0  0  0
   45.2149  -29.2137 -101.6353 O   0  0  0  0  0  0  0  0  0  0  0  0
   45.1735  -31.0080 -103.1283 C   0  0  1  0  0  0  0  0  0  0  0  0
   44.8135  -32.3885 -103.1279 O   0  0  0  0  0  0  0  0  0  0  0  0
   43.9619  -30.1638 -103.3759 C   0  0  1  0  0  0  0  0  0  0  0  0
   42.7799  -30.8240 -102.8775 O   0  0  0  0  0  0  0  0  0  0  0  0
   44.1951  -28.8361 -102.5942 C   0  0  2  0  0  0  0  0  0  0  0  0
   49.9170  -31.7353 -103.2973 O   0  0  0  0  0  0  0  0  0  0  0  0
   48.1154  -25.3450 -103.3952 N   0  0  0  0  0  0  0  0  0  0  0  0
   48.0391  -26.2974 -102.4334 C   0  0  0  0  0  0  0  0  0  0  0  0
   46.9994  -27.1550 -102.3645 N   0  0  0  0  0  0  0  0  0  0  0  0
   45.9554  -27.0340 -103.2006 C   0  0  0  0  0  0  0  0  0  0  0  0
   45.9757  -26.0072 -104.2143 C   0  0  0  0  0  0  0  0  0  0  0  0
   47.1195  -25.1576 -104.2869 C   0  0  0  0  0  0  0  0  0  0  0  0
   47.2089  -24.1616 -105.2381 N   0  0  0  0  0  0  0  0  0  0  0  0
   44.8295  -26.1001 -104.8987 N   0  0  0  0  0  0  0  0  0  0  0  0
   44.1175  -27.0666 -104.4004 C   0  0  0  0  0  0  0  0  0  0  0  0
   44.7629  -27.6851 -103.3551 N   0  0  0  0  0  0  0  0  0  0  0  0
  2  1  1  6  0  0  0
  2  3  1  0  0  0  0
  2  5  1  0  0  0  0
  3  4  1  0  0  0  0
  3 17  1  0  0  0  0
  5  6  1  0  0  0  0
  7  6  1  1  0  0  0
  7  8  1  0  0  0  0
  7  9  1  0  0  0  0
 10  9  1  6  0  0  0
 10 11  1  0  0  0  0
 10 12  1  0  0  0  0
 11 16  1  0  0  0  0
 12 13  1  1  0  0  0
 12 14  1  0  0  0  0
 14 15  1  1  0  0  0
 14 16  1  0  0  0  0
 16 27  1  6  0  0  0
 18 19  2  0  0  0  0
 18 23  1  0  0  0  0
 19 20  1  0  0  0  0
 20 21  2  0  0  0  0
 21 22  1  0  0  0  0
 21 27  1  0  0  0  0
 22 23  2  0  0  0  0
 22 25  1  0  0  0  0
 23 24  1  0  0  0  0
 25 26  2  0  0  0  0
 26 27  1  0  0  0  0
M  END
>  <CHROM.1>
151.03996235,58.31164639,-74.62168356,-136.24036919,149.14089323,44.20125048
-2.63703924,47.09658817,-29.02175019,-102.57843924,-0.72751432,-0.10129183
-0.37245211

>  <Name>
ligand

>  <RI>
0

>  <Rbt.Current_Directory>
/home/itssahil/PROJECTS/Mol_Feturizer/New_Systems/rnas/4L81

>  <Rbt.Executable>
rbdock ($Id: //depot/dev/client3/rdock/2013.1/src/exe/rbdock.cxx#4 $)

>  <Rbt.Library>
libRbt.so (2013.1, Build901 2013/11/27)

>  <Rbt.Parameter_File>
/export/apps/rDock/src/rDock_2013.1_src/data/scripts/dock_solv.prm

>  <Rbt.Receptor>
prm/pocket_docking_4.prm

>  <SCORE>
-15.2748

>  <SCORE.INTER>
-16.9122

>  <SCORE.INTER.CONST>
1

>  <SCORE.INTER.POLAR>
0

>  <SCORE.INTER.ROT>
7

>  <SCORE.INTER.SOLV>
10.7022

>  <SCORE.INTER.VDW>
-23.1089

>  <SCORE.INTER.norm>
-0.626377

>  <SCORE.INTRA>
1.63733

>  <SCORE.INTRA.DIHEDRAL>
1.95485

>  <SCORE.INTRA.DIHEDRAL.0>
8.34559

>  <SCORE.INTRA.POLAR>
0

>  <SCORE.INTRA.POLAR.0>
0

>  <SCORE.INTRA.REPUL>
0

>  <SCORE.INTRA.REPUL.0>
0

>  <SCORE.INTRA.SOLV>
2.4618

>  <SCORE.INTRA.SOLV.lig_0>
-48.829

>  <SCORE.INTRA.VDW>
-0.570991

>  <SCORE.INTRA.VDW.0>
-1.77092

>  <SCORE.INTRA.norm>
0.060642

>  <SCORE.RESTR>
0

>  <SCORE.RESTR.CAVITY>
0

>  <SCORE.RESTR.norm>
0

>  <SCORE.SYSTEM>
0

>  <SCORE.SYSTEM.CONST>
0

>  <SCORE.SYSTEM.DIHEDRAL>
0

>  <SCORE.SYSTEM.SOLV>
0

>  <SCORE.SYSTEM.norm>
0

>  <SCORE.heavy>
27

>  <SCORE.norm>
-0.565735

>  <RMSD>
6.208

$$$$
ligand
 OpenBabel11021811503D
libRbt.so/2013.1/901 2013/11/27
 27 29  0  0  0  0  0  0  0  0999 V2000
   51.2830  -30.8600 -100.3035 N   0  0  0  0  0  0  0  0  0  0  0  0
   50.3825  -31.6104 -101.1860 C   0  0  2  0  0  0  0  0  0  0  0  0
   51.1155  -31.9822 -102.4577 C   0  0  0  0  0  0  0  0  0  0  0  0
   51.8815  -31.1867 -102.9804 O   0  0  0  0  0  0  0  0  0  0  0  0
   49.1420  -30.7842 -101.5520 C   0  0  0  0  0  0  0  0  0  0  0  0
   48.4222  -30.3046 -100.2995 C   0  0  0  0  0  0  0  0  0  0  0  0
   46.9415  -29.2841 -100.6594 S   0  0  2  0  0  0  0  0  0  0  0  0
   46.3616  -28.7563  -99.0148 C   0  0  0  0  0  0  0  0  0  0  0  0
   45.8323  -30.6664 -100.9194 C   0  0  0  0  0  0  0  0  0  0  0  0
   45.2968  -30.7576 -102.3236 C   0  0  1  0  0  0  0  0  0  0  0  0
   44.7720  -29.4676 -102.6805 O   0  0  0  0  0  0  0  0  0  0  0  0
   46.5205  -30.9492 -103.1259 C   0  0  1  0  0  0  0  0  0  0  0  0
   46.6984  -32.3370 -103.4046 O   0  0  0  0  0  0  0  0  0  0  0  0
   46.1978  -30.2115 -104.3883 C   0  0  1  0  0  0  0  0  0  0  0  0
   45.5083  -31.0776 -105.3134 O   0  0  0  0  0  0  0  0  0  0  0  0
   45.2664  -29.0335 -103.9725 C   0  0  2  0  0  0  0  0  0  0  0  0
   50.9732  -33.0874 -102.9509 O   0  0  0  0  0  0  0  0  0  0  0  0
   49.5614  -26.1569 -102.7575 N   0  0  0  0  0  0  0  0  0  0  0  0
   49.4619  -27.5072 -102.8257 C   0  0  0  0  0  0  0  0  0  0  0  0
   48.3144  -28.1169 -103.1897 N   0  0  0  0  0  0  0  0  0  0  0  0
   47.1997  -27.4017 -103.4124 C   0  0  0  0  0  0  0  0  0  0  0  0
   47.2497  -25.9631 -103.3108 C   0  0  0  0  0  0  0  0  0  0  0  0
   48.4971  -25.3563 -102.9774 C   0  0  0  0  0  0  0  0  0  0  0  0
   48.6179  -23.9855 -102.8731 N   0  0  0  0  0  0  0  0  0  0  0  0
   46.0208  -25.5022 -103.5718 N   0  0  0  0  0  0  0  0  0  0  0  0
   45.2343  -26.5090 -103.8110 C   0  0  0  0  0  0  0  0  0  0  0  0
   45.9063  -27.7067 -103.7348 N   0  0  0  0  0  0  0  0  0  0  0  0
  2  1  1  1  0  0  0
  2  3  1  0  0  0  0
  2  5  1  0  0  0  0
  3  4  1  0  0  0  0
  3 17  1  0  0  0  0
  5  6  1  0  0  0  0
  7  6  1  1  0  0  0
  7  8  1  0  0  0  0
  7  9  1  0  0  0  0
 10  9  1  1  0  0  0
 10 11  1  0  0  0  0
 10 12  1  0  0  0  0
 11 16  1  0  0  0  0
 12 13  1  6  0  0  0
 12 14  1  0  0  0  0
 14 15  1  6  0  0  0
 14 16  1  0  0  0  0
 16 27  1  1  0  0  0
 18 19  2  0  0  0  0
 18 23  1  0  0  0  0
 19 20  1  0  0  0  0
 20 21  2  0  0  0  0
 21 22  1  0  0  0  0
 21 27  1  0  0  0  0
 22 23  2  0  0  0  0
 22 25  1  0  0  0  0
 23 24  1  0  0  0  0
 25 26  2  0  0  0  0
 26 27  1  0  0  0  0
M  END
>  <CHROM.1>
-39.55273896,-55.31810110,179.02534252,-176.01988639,-115.80667037,-50.53115537
90.44228670,47.69460721,-29.23090357,-102.49397367,-0.98432883,-0.24288191
-0.07644863

>  <Name>
ligand

>  <RI>
0

>  <Rbt.Current_Directory>
/home/itssahil/PROJECTS/Mol_Feturizer/New_Systems/rnas/4L81

>  <Rbt.Executable>
rbdock ($Id: //depot/dev/client3/rdock/2013.1/src/exe/rbdock.cxx#4 $)

>  <Rbt.Library>
libRbt.so (2013.1, Build901 2013/11/27)

>  <Rbt.Parameter_File>
/export/apps/rDock/src/rDock_2013.1_src/data/scripts/dock_solv.prm

>  <Rbt.Receptor>
prm/pocket_docking_3.prm

>  <SCORE>
-14.5514

>  <SCORE.INTER>
-11.852

>  <SCORE.INTER.CONST>
1

>  <SCORE.INTER.POLAR>
0

>  <SCORE.INTER.ROT>
7

>  <SCORE.INTER.SOLV>
14.6046

>  <SCORE.INTER.VDW>
-21.0362

>  <SCORE.INTER.norm>
-0.438961

>  <SCORE.INTRA>
-2.70253

>  <SCORE.INTRA.DIHEDRAL>
-0.0620467

>  <SCORE.INTRA.DIHEDRAL.0>
8.34559

>  <SCORE.INTRA.POLAR>
0

>  <SCORE.INTRA.POLAR.0>
0

>  <SCORE.INTRA.REPUL>
0

>  <SCORE.INTRA.REPUL.0>
0

>  <SCORE.INTRA.SOLV>
0.053967

>  <SCORE.INTRA.SOLV.lig_0>
-48.829

>  <SCORE.INTRA.VDW>
-2.69849

>  <SCORE.INTRA.VDW.0>
-1.77092

>  <SCORE.INTRA.norm>
-0.100094

>  <SCORE.RESTR>
0.00313058

>  <SCORE.RESTR.CAVITY>
0.00313058

>  <SCORE.RESTR.norm>
0.000115947

>  <SCORE.SYSTEM>
0

>  <SCORE.SYSTEM.CONST>
0

>  <SCORE.SYSTEM.DIHEDRAL>
0

>  <SCORE.SYSTEM.SOLV>
0

>  <SCORE.SYSTEM.norm>
0

>  <SCORE.heavy>
27

>  <SCORE.norm>
-0.538939

>  <RMSD>
6.212

$$$$
ligand
 OpenBabel11021811503D
libRbt.so/2013.1/901 2013/11/27
 27 29  0  0  0  0  0  0  0  0999 V2000
   51.3332  -31.0948 -100.5494 N   0  0  0  0  0  0  0  0  0  0  0  0
   49.9636  -31.3045 -101.0321 C   0  0  2  0  0  0  0  0  0  0  0  0
   49.9745  -31.4403 -102.5401 C   0  0  0  0  0  0  0  0  0  0  0  0
   50.7773  -30.8065 -103.2083 O   0  0  0  0  0  0  0  0  0  0  0  0
   49.0495  -30.1337 -100.6462 C   0  0  0  0  0  0  0  0  0  0  0  0
   47.5946  -30.4585 -100.9542 C   0  0  0  0  0  0  0  0  0  0  0  0
   46.4713  -29.0237 -100.7468 S   0  0  2  0  0  0  0  0  0  0  0  0
   46.3024  -28.8558  -98.9405 C   0  0  0  0  0  0  0  0  0  0  0  0
   44.9633  -29.9284 -101.0881 C   0  0  0  0  0  0  0  0  0  0  0  0
   44.5486  -29.8907 -102.5350 C   0  0  1  0  0  0  0  0  0  0  0  0
   44.3799  -28.5131 -102.9100 O   0  0  0  0  0  0  0  0  0  0  0  0
   45.7578  -30.3700 -103.2319 C   0  0  1  0  0  0  0  0  0  0  0  0
   45.6242  -31.7605 -103.5220 O   0  0  0  0  0  0  0  0  0  0  0  0
   45.7335  -29.5781 -104.5025 C   0  0  1  0  0  0  0  0  0  0  0  0
   44.9427  -30.2555 -105.5010 O   0  0  0  0  0  0  0  0  0  0  0  0
   45.0762  -28.2112 -104.1453 C   0  0  2  0  0  0  0  0  0  0  0  0
   49.2067  -32.2061 -103.0960 O   0  0  0  0  0  0  0  0  0  0  0  0
   49.8789  -26.4348 -102.7391 N   0  0  0  0  0  0  0  0  0  0  0  0
   49.4836  -27.7232 -102.8871 C   0  0  0  0  0  0  0  0  0  0  0  0
   48.2365  -28.0410 -103.2928 N   0  0  0  0  0  0  0  0  0  0  0  0
   47.3126  -27.0844 -103.4794 C   0  0  0  0  0  0  0  0  0  0  0  0
   47.6784  -25.7010 -103.2932 C   0  0  0  0  0  0  0  0  0  0  0  0
   49.0228  -25.4065 -102.9176 C   0  0  0  0  0  0  0  0  0  0  0  0
   49.4427  -24.1050 -102.7324 N   0  0  0  0  0  0  0  0  0  0  0  0
   46.5873  -24.9643 -103.5336 N   0  0  0  0  0  0  0  0  0  0  0  0
   45.6018  -25.7560 -103.8360 C   0  0  0  0  0  0  0  0  0  0  0  0
   45.9899  -27.0755 -103.8265 N   0  0  0  0  0  0  0  0  0  0  0  0
  2  1  1  6  0  0  0
  2  3  1  0  0  0  0
  2  5  1  0  0  0  0
  3  4  1  0  0  0  0
  3 17  1  0  0  0  0
  5  6  1  0  0  0  0
  7  6  1  1  0  0  0
  7  8  1  0  0  0  0
  7  9  1  0  0  0  0
 10  9  1  1  0  0  0
 10 11  1  0  0  0  0
 10 12  1  0  0  0  0
 11 16  1  0  0  0  0
 12 13  1  6  0  0  0
 12 14  1  0  0  0  0
 14 15  1  6  0  0  0
 14 16  1  0  0  0  0
 16 27  1  1  0  0  0
 18 19  2  0  0  0  0
 18 23  1  0  0  0  0
 19 20  1  0  0  0  0
 20 21  2  0  0  0  0
 21 22  1  0  0  0  0
 21 27  1  0  0  0  0
 22 23  2  0  0  0  0
 22 25  1  0  0  0  0
 23 24  1  0  0  0  0
 25 26  2  0  0  0  0
 26 27  1  0  0  0  0
M  END
>  <CHROM.1>
-34.00418355,-171.01071647,-171.70935290,-75.24011977,-92.50141098,-58.21438845
95.70564568,47.37533419,-28.84241075,-102.56116094,-1.07282028,-0.27324430
-0.19997972

>  <Name>
ligand

>  <RI>
0

>  <Rbt.Current_Directory>
/home/itssahil/PROJECTS/Mol_Feturizer/New_Systems/rnas/4L81

>  <Rbt.Executable>
rbdock ($Id: //depot/dev/client3/rdock/2013.1/src/exe/rbdock.cxx#4 $)

>  <Rbt.Library>
libRbt.so (2013.1, Build901 2013/11/27)

>  <Rbt.Parameter_File>
/export/apps/rDock/src/rDock_2013.1_src/data/scripts/dock_solv.prm

>  <Rbt.Receptor>
prm/pocket_docking_4.prm

>  <SCORE>
-14.5653

>  <SCORE.INTER>
-10.8394

>  <SCORE.INTER.CONST>
1

>  <SCORE.INTER.POLAR>
0

>  <SCORE.INTER.ROT>
7

>  <SCORE.INTER.SOLV>
15.9865

>  <SCORE.INTER.VDW>
-20.8218

>  <SCORE.INTER.norm>
-0.40146

>  <SCORE.INTRA>
-3.72592

>  <SCORE.INTRA.DIHEDRAL>
-2.68527

>  <SCORE.INTRA.DIHEDRAL.0>
8.34559

>  <SCORE.INTRA.POLAR>
0

>  <SCORE.INTRA.POLAR.0>
0

>  <SCORE.INTRA.REPUL>
0

>  <SCORE.INTRA.REPUL.0>
0

>  <SCORE.INTRA.SOLV>
-0.78385

>  <SCORE.INTRA.SOLV.lig_0>
-48.829

>  <SCORE.INTRA.VDW>
-1.99136

>  <SCORE.INTRA.VDW.0>
-1.77092

>  <SCORE.INTRA.norm>
-0.137997

>  <SCORE.RESTR>
0

>  <SCORE.RESTR.CAVITY>
0

>  <SCORE.RESTR.norm>
0

>  <SCORE.SYSTEM>
0

>  <SCORE.SYSTEM.CONST>
0

>  <SCORE.SYSTEM.DIHEDRAL>
0

>  <SCORE.SYSTEM.SOLV>
0

>  <SCORE.SYSTEM.norm>
0

>  <SCORE.heavy>
27

>  <SCORE.norm>
-0.539457

>  <RMSD>
6.234

$$$$
ligand
 OpenBabel11021811503D
libRbt.so/2013.1/901 2013/11/27
 27 29  0  0  0  0  0  0  0  0999 V2000
   46.3161  -31.0283 -105.2293 N   0  0  0  0  0  0  0  0  0  0  0  0
   46.9721  -31.7344 -104.1231 C   0  0  2  0  0  0  0  0  0  0  0  0
   47.7325  -32.9266 -104.6649 C   0  0  0  0  0  0  0  0  0  0  0  0
   48.6513  -33.4127 -104.0229 O   0  0  0  0  0  0  0  0  0  0  0  0
   45.9499  -32.2263 -103.0894 C   0  0  0  0  0  0  0  0  0  0  0  0
   45.4735  -31.0784 -102.2106 C   0  0  0  0  0  0  0  0  0  0  0  0
   46.6730  -30.6213 -100.9008 S   0  0  2  0  0  0  0  0  0  0  0  0
   45.7338  -29.4962  -99.8184 C   0  0  0  0  0  0  0  0  0  0  0  0
   47.5497  -29.4042 -101.8800 C   0  0  0  0  0  0  0  0  0  0  0  0
   48.7340  -29.9632 -102.6228 C   0  0  1  0  0  0  0  0  0  0  0  0
   48.9978  -29.1029 -103.7440 O   0  0  0  0  0  0  0  0  0  0  0  0
   49.8412  -29.7599 -101.6686 C   0  0  1  0  0  0  0  0  0  0  0  0
   50.0803  -30.9676 -100.9477 O   0  0  0  0  0  0  0  0  0  0  0  0
   50.9977  -29.4671 -102.5735 C   0  0  1  0  0  0  0  0  0  0  0  0
   51.6359  -30.6937 -102.9852 O   0  0  0  0  0  0  0  0  0  0  0  0
   50.3996  -28.7397 -103.8149 C   0  0  2  0  0  0  0  0  0  0  0  0
   47.4136  -33.4304 -105.7276 O   0  0  0  0  0  0  0  0  0  0  0  0
   49.8895  -24.1337 -106.4078 N   0  0  0  0  0  0  0  0  0  0  0  0
   49.7856  -25.3859 -106.9168 C   0  0  0  0  0  0  0  0  0  0  0  0
   49.8959  -26.4810 -106.1361 N   0  0  0  0  0  0  0  0  0  0  0  0
   50.2028  -26.3654 -104.8338 C   0  0  0  0  0  0  0  0  0  0  0  0
   50.3633  -25.0518 -104.2583 C   0  0  0  0  0  0  0  0  0  0  0  0
   50.1833  -23.9199 -105.1078 C   0  0  0  0  0  0  0  0  0  0  0  0
   50.3124  -22.6350 -104.6207 N   0  0  0  0  0  0  0  0  0  0  0  0
   50.6673  -25.2174 -102.9656 N   0  0  0  0  0  0  0  0  0  0  0  0
   50.7158  -26.4895 -102.7030 C   0  0  0  0  0  0  0  0  0  0  0  0
   50.4307  -27.2480 -103.8144 N   0  0  0  0  0  0  0  0  0  0  0  0
  2  1  1  6  0  0  0
  2  3  1  0  0  0  0
  2  5  1  0  0  0  0
  3  4  1  0  0  0  0
  3 17  1  0  0  0  0
  5  6  1  0  0  0  0
  7  6  1  6  0  0  0
  7  8  1  0  0  0  0
  7  9  1  0  0  0  0
 10  9  1  1  0  0  0
 10 11  1  0  0  0  0
 10 12  1  0  0  0  0
 11 16  1  0  0  0  0
 12 13  1  6  0  0  0
 12 14  1  0  0  0  0
 14 15  1  6  0  0  0
 14 16  1  0  0  0  0
 16 27  1  1  0  0  0
 18 19  2  0  0  0  0
 18 23  1  0  0  0  0
 19 20  1  0  0  0  0
 20 21  2  0  0  0  0
 21 22  1  0  0  0  0
 21 27  1  0  0  0  0
 22 23  2  0  0  0  0
 22 25  1  0  0  0  0
 23 24  1  0  0  0  0
 25 26  2  0  0  0  0
 26 27  1  0  0  0  0
M  END
>  <CHROM.1>
158.12417134,-76.91308725,-78.22424867,-168.89931728,-91.86899799,156.53159090
-79.34432311,48.81177830,-28.98402140,-103.45608922,-3.00704395,1.15341924
1.13385041

>  <Name>
ligand

>  <RI>
0

>  <Rbt.Current_Directory>
/home/itssahil/PROJECTS/Mol_Feturizer/New_Systems/rnas/4L81

>  <Rbt.Executable>
rbdock ($Id: //depot/dev/client3/rdock/2013.1/src/exe/rbdock.cxx#4 $)

>  <Rbt.Library>
libRbt.so (2013.1, Build901 2013/11/27)

>  <Rbt.Parameter_File>
/export/apps/rDock/src/rDock_2013.1_src/data/scripts/dock_solv.prm

>  <Rbt.Receptor>
prm/pocket_docking_5.prm

>  <SCORE>
-15.7458

>  <SCORE.INTER>
-15.603

>  <SCORE.INTER.CONST>
1

>  <SCORE.INTER.POLAR>
0

>  <SCORE.INTER.ROT>
7

>  <SCORE.INTER.SOLV>
8.61908

>  <SCORE.INTER.VDW>
-21.5417

>  <SCORE.INTER.norm>
-0.577887

>  <SCORE.INTRA>
-0.142828

>  <SCORE.INTRA.DIHEDRAL>
1.41799

>  <SCORE.INTRA.DIHEDRAL.0>
8.34559

>  <SCORE.INTRA.POLAR>
0

>  <SCORE.INTRA.POLAR.0>
0

>  <SCORE.INTRA.REPUL>
0

>  <SCORE.INTRA.REPUL.0>
0

>  <SCORE.INTRA.SOLV>
1.43548

>  <SCORE.INTRA.SOLV.lig_0>
-48.829

>  <SCORE.INTRA.VDW>
-1.56956

>  <SCORE.INTRA.VDW.0>
-1.77092

>  <SCORE.INTRA.norm>
-0.00528991

>  <SCORE.RESTR>
0

>  <SCORE.RESTR.CAVITY>
0

>  <SCORE.RESTR.norm>
0

>  <SCORE.SYSTEM>
0

>  <SCORE.SYSTEM.CONST>
0

>  <SCORE.SYSTEM.DIHEDRAL>
0

>  <SCORE.SYSTEM.SOLV>
0

>  <SCORE.SYSTEM.norm>
0

>  <SCORE.heavy>
27

>  <SCORE.norm>
-0.583177

>  <RMSD>
6.235

$$$$
ligand
 OpenBabel11021811503D
libRbt.so/2013.1/901 2013/11/27
 27 29  0  0  0  0  0  0  0  0999 V2000
   51.2695  -30.6394 -100.1412 N   0  0  0  0  0  0  0  0  0  0  0  0
   50.4481  -31.5447 -100.9527 C   0  0  2  0  0  0  0  0  0  0  0  0
   51.2335  -31.9849 -102.1701 C   0  0  0  0  0  0  0  0  0  0  0  0
   51.8180  -31.1596 -102.8557 O   0  0  0  0  0  0  0  0  0  0  0  0
   49.1550  -30.8609 -101.4173 C   0  0  0  0  0  0  0  0  0  0  0  0
   48.3213  -30.4126 -100.2253 C   0  0  0  0  0  0  0  0  0  0  0  0
   46.9101  -29.3376 -100.6901 S   0  0  2  0  0  0  0  0  0  0  0  0
   46.2666  -28.7425  -99.0928 C   0  0  0  0  0  0  0  0  0  0  0  0
   45.7550  -30.6760 -100.9785 C   0  0  0  0  0  0  0  0  0  0  0  0
   45.2361  -30.7349 -102.3906 C   0  0  1  0  0  0  0  0  0  0  0  0
   44.7341  -29.4313 -102.7309 O   0  0  0  0  0  0  0  0  0  0  0  0
   46.4669  -30.9298 -103.1809 C   0  0  1  0  0  0  0  0  0  0  0  0
   46.6286  -32.3149 -103.4821 O   0  0  0  0  0  0  0  0  0  0  0  0
   46.1707  -30.1654 -104.4339 C   0  0  1  0  0  0  0  0  0  0  0  0
   45.4807  -31.0050 -105.3827 O   0  0  0  0  0  0  0  0  0  0  0  0
   45.2509  -28.9816 -104.0087 C   0  0  2  0  0  0  0  0  0  0  0  0
   51.3163  -33.1664 -102.4565 O   0  0  0  0  0  0  0  0  0  0  0  0
   49.5642  -26.1909 -102.6652 N   0  0  0  0  0  0  0  0  0  0  0  0
   49.4448  -27.5384 -102.7540 C   0  0  0  0  0  0  0  0  0  0  0  0
   48.2958  -28.1247 -103.1502 N   0  0  0  0  0  0  0  0  0  0  0  0
   47.1975  -27.3888 -103.3862 C   0  0  0  0  0  0  0  0  0  0  0  0
   47.2679  -25.9526 -103.2637 C   0  0  0  0  0  0  0  0  0  0  0  0
   48.5175  -25.3704 -102.8961 C   0  0  0  0  0  0  0  0  0  0  0  0
   48.6577  -24.0032 -102.7705 N   0  0  0  0  0  0  0  0  0  0  0  0
   46.0522  -25.4686 -103.5439 N   0  0  0  0  0  0  0  0  0  0  0  0
   45.2552  -26.4594 -103.8132 C   0  0  0  0  0  0  0  0  0  0  0  0
   45.9064  -27.6686 -103.7395 N   0  0  0  0  0  0  0  0  0  0  0  0
  2  1  1  6  0  0  0
  2  3  1  0  0  0  0
  2  5  1  0  0  0  0
  3  4  1  0  0  0  0
  3 17  1  0  0  0  0
  5  6  1  0  0  0  0
  7  6  1  1  0  0  0
  7  8  1  0  0  0  0
  7  9  1  0  0  0  0
 10  9  1  1  0  0  0
 10 11  1  0  0  0  0
 10 12  1  0  0  0  0
 11 16  1  0  0  0  0
 12 13  1  6  0  0  0
 12 14  1  0  0  0  0
 14 15  1  6  0  0  0
 14 16  1  0  0  0  0
 16 27  1  1  0  0  0
 18 19  2  0  0  0  0
 18 23  1  0  0  0  0
 19 20  1  0  0  0  0
 20 21  2  0  0  0  0
 21 22  1  0  0  0  0
 21 27  1  0  0  0  0
 22 23  2  0  0  0  0
 22 25  1  0  0  0  0
 23 24  1  0  0  0  0
 25 26  2  0  0  0  0
 26 27  1  0  0  0  0
M  END
>  <CHROM.1>
-48.29408544,-59.81110086,170.07831678,-171.19067662,-118.89578570,-51.88834415
89.89629297,47.69168859,-29.22253544,-102.44503763,-0.92828474,-0.29012307
-0.08219354

>  <Name>
ligand

>  <RI>
0

>  <Rbt.Current_Directory>
/home/itssahil/PROJECTS/Mol_Feturizer/New_Systems/rnas/4L81

>  <Rbt.Executable>
rbdock ($Id: //depot/dev/client3/rdock/2013.1/src/exe/rbdock.cxx#4 $)

>  <Rbt.Library>
libRbt.so (2013.1, Build901 2013/11/27)

>  <Rbt.Parameter_File>
/export/apps/rDock/src/rDock_2013.1_src/data/scripts/dock_solv.prm

>  <Rbt.Receptor>
prm/pocket_docking_4.prm

>  <SCORE>
-14.7612

>  <SCORE.INTER>
-12.1945

>  <SCORE.INTER.CONST>
1

>  <SCORE.INTER.POLAR>
0

>  <SCORE.INTER.ROT>
7

>  <SCORE.INTER.SOLV>
15.8047

>  <SCORE.INTER.VDW>
-21.6645

>  <SCORE.INTER.norm>
-0.451648

>  <SCORE.INTRA>
-2.56671

>  <SCORE.INTRA.DIHEDRAL>
0.683321

>  <SCORE.INTRA.DIHEDRAL.0>
8.34559

>  <SCORE.INTRA.POLAR>
0

>  <SCORE.INTRA.POLAR.0>
0

>  <SCORE.INTRA.REPUL>
0

>  <SCORE.INTRA.REPUL.0>
0

>  <SCORE.INTRA.SOLV>
-0.0322773

>  <SCORE.INTRA.SOLV.lig_0>
-48.829

>  <SCORE.INTRA.VDW>
-2.89223

>  <SCORE.INTRA.VDW.0>
-1.77092

>  <SCORE.INTRA.norm>
-0.0950632

>  <SCORE.RESTR>
0

>  <SCORE.RESTR.CAVITY>
0

>  <SCORE.RESTR.norm>
0

>  <SCORE.SYSTEM>
0

>  <SCORE.SYSTEM.CONST>
0

>  <SCORE.SYSTEM.DIHEDRAL>
0

>  <SCORE.SYSTEM.SOLV>
0

>  <SCORE.SYSTEM.norm>
0

>  <SCORE.heavy>
27

>  <SCORE.norm>
-0.546711

>  <RMSD>
6.265

$$$$
ligand
 OpenBabel11021811503D
libRbt.so/2013.1/901 2013/11/27
 27 29  0  0  0  0  0  0  0  0999 V2000
   47.9970  -30.7805 -100.0961 N   0  0  0  0  0  0  0  0  0  0  0  0
   47.5639  -29.5853 -100.8286 C   0  0  2  0  0  0  0  0  0  0  0  0
   48.6904  -28.5738 -100.8562 C   0  0  0  0  0  0  0  0  0  0  0  0
   49.6056  -28.6512 -100.0504 O   0  0  0  0  0  0  0  0  0  0  0  0
   46.3354  -28.9415 -100.1715 C   0  0  0  0  0  0  0  0  0  0  0  0
   45.1230  -29.8555 -100.2787 C   0  0  0  0  0  0  0  0  0  0  0  0
   44.3481  -29.8410 -101.9409 S   0  0  2  0  0  0  0  0  0  0  0  0
   43.1035  -31.1690 -101.8568 C   0  0  0  0  0  0  0  0  0  0  0  0
   45.6646  -30.7396 -102.7581 C   0  0  0  0  0  0  0  0  0  0  0  0
   45.3314  -31.1547 -104.1665 C   0  0  1  0  0  0  0  0  0  0  0  0
   44.7783  -30.0134 -104.8437 O   0  0  0  0  0  0  0  0  0  0  0  0
   46.6622  -31.3896 -104.7592 C   0  0  1  0  0  0  0  0  0  0  0  0
   46.9648  -32.7833 -104.7203 O   0  0  0  0  0  0  0  0  0  0  0  0
   46.4670  -30.9482 -106.1767 C   0  0  1  0  0  0  0  0  0  0  0  0
   45.9661  -32.0388 -106.9774 O   0  0  0  0  0  0  0  0  0  0  0  0
   45.4143  -29.8004 -106.1290 C   0  0  2  0  0  0  0  0  0  0  0  0
   48.7107  -27.6962 -101.7013 O   0  0  0  0  0  0  0  0  0  0  0  0
   49.4557  -26.4057 -105.5439 N   0  0  0  0  0  0  0  0  0  0  0  0
   49.4878  -27.7569 -105.4377 C   0  0  0  0  0  0  0  0  0  0  0  0
   48.3904  -28.5121 -105.6528 N   0  0  0  0  0  0  0  0  0  0  0  0
   47.2006  -27.9380 -105.8944 C   0  0  0  0  0  0  0  0  0  0  0  0
   47.1120  -26.4999 -105.9754 C   0  0  0  0  0  0  0  0  0  0  0  0
   48.3075  -25.7423 -105.7964 C   0  0  0  0  0  0  0  0  0  0  0  0
   48.2963  -24.3642 -105.8707 N   0  0  0  0  0  0  0  0  0  0  0  0
   45.8321  -26.1924 -106.2165 N   0  0  0  0  0  0  0  0  0  0  0  0
   45.1391  -27.2901 -106.2806 C   0  0  0  0  0  0  0  0  0  0  0  0
   45.9298  -28.4005 -106.0972 N   0  0  0  0  0  0  0  0  0  0  0  0
  2  1  1  1  0  0  0
  2  3  1  0  0  0  0
  2  5  1  0  0  0  0
  3  4  1  0  0  0  0
  3 17  1  0  0  0  0
  5  6  1  0  0  0  0
  7  6  1  1  0  0  0
  7  8  1  0  0  0  0
  7  9  1  0  0  0  0
 10  9  1  1  0  0  0
 10 11  1  0  0  0  0
 10 12  1  0  0  0  0
 11 16  1  0  0  0  0
 12 13  1  6  0  0  0
 12 14  1  0  0  0  0
 14 15  1  6  0  0  0
 14 16  1  0  0  0  0
 16 27  1  1  0  0  0
 18 19  2  0  0  0  0
 18 23  1  0  0  0  0
 19 20  1  0  0  0  0
 20 21  2  0  0  0  0
 21 22  1  0  0  0  0
 21 27  1  0  0  0  0
 22 23  2  0  0  0  0
 22 25  1  0  0  0  0
 23 24  1  0  0  0  0
 25 26  2  0  0  0  0
 26 27  1  0  0  0  0
M  END
>  <CHROM.1>
-19.14360847,-66.40569069,-77.40207578,172.23550693,170.81878425,47.41339890
101.90856164,46.67722400,-29.11081907,-103.81972395,-2.01204561,-0.87738500
-1.28745218

>  <Name>
ligand

>  <RI>
0

>  <Rbt.Current_Directory>
/home/itssahil/PROJECTS/Mol_Feturizer/New_Systems/rnas/4L81

>  <Rbt.Executable>
rbdock ($Id: //depot/dev/client3/rdock/2013.1/src/exe/rbdock.cxx#4 $)

>  <Rbt.Library>
libRbt.so (2013.1, Build901 2013/11/27)

>  <Rbt.Parameter_File>
/export/apps/rDock/src/rDock_2013.1_src/data/scripts/dock_solv.prm

>  <Rbt.Receptor>
prm/pocket_docking_4.prm

>  <SCORE>
-13.1611

>  <SCORE.INTER>
-11.3187

>  <SCORE.INTER.CONST>
1

>  <SCORE.INTER.POLAR>
0

>  <SCORE.INTER.ROT>
7

>  <SCORE.INTER.SOLV>
12.4391

>  <SCORE.INTER.VDW>
-19.9588

>  <SCORE.INTER.norm>
-0.419211

>  <SCORE.INTRA>
-1.84241

>  <SCORE.INTRA.DIHEDRAL>
-3.27637

>  <SCORE.INTRA.DIHEDRAL.0>
8.34559

>  <SCORE.INTRA.POLAR>
0

>  <SCORE.INTRA.POLAR.0>
0

>  <SCORE.INTRA.REPUL>
0

>  <SCORE.INTRA.REPUL.0>
0

>  <SCORE.INTRA.SOLV>
0.631763

>  <SCORE.INTRA.SOLV.lig_0>
-48.829

>  <SCORE.INTRA.VDW>
-0.520104

>  <SCORE.INTRA.VDW.0>
-1.77092

>  <SCORE.INTRA.norm>
-0.0682372

>  <SCORE.RESTR>
0

>  <SCORE.RESTR.CAVITY>
0

>  <SCORE.RESTR.norm>
0

>  <SCORE.SYSTEM>
0

>  <SCORE.SYSTEM.CONST>
0

>  <SCORE.SYSTEM.DIHEDRAL>
0

>  <SCORE.SYSTEM.SOLV>
0

>  <SCORE.SYSTEM.norm>
0

>  <SCORE.heavy>
27

>  <SCORE.norm>
-0.487448

>  <RMSD>
6.278

$$$$
ligand
 OpenBabel11021811503D
libRbt.so/2013.1/901 2013/11/27
 27 29  0  0  0  0  0  0  0  0999 V2000
   51.0695  -34.9693 -106.4647 N   0  0  0  0  0  0  0  0  0  0  0  0
   49.8101  -34.3055 -106.8195 C   0  0  2  0  0  0  0  0  0  0  0  0
   49.9789  -33.5702 -108.1324 C   0  0  0  0  0  0  0  0  0  0  0  0
   49.0323  -33.4499 -108.8954 O   0  0  0  0  0  0  0  0  0  0  0  0
   49.3841  -33.3014 -105.7399 C   0  0  0  0  0  0  0  0  0  0  0  0
   48.0496  -32.6601 -106.0934 C   0  0  0  0  0  0  0  0  0  0  0  0
   47.2838  -31.7587 -104.6918 S   0  0  2  0  0  0  0  0  0  0  0  0
   45.7978  -30.9961 -105.4196 C   0  0  0  0  0  0  0  0  0  0  0  0
   48.3875  -30.3496 -104.7629 C   0  0  0  0  0  0  0  0  0  0  0  0
   49.5780  -30.4657 -103.8485 C   0  0  1  0  0  0  0  0  0  0  0  0
   50.3919  -29.2951 -104.0329 O   0  0  0  0  0  0  0  0  0  0  0  0
   48.9708  -30.3475 -102.5086 C   0  0  1  0  0  0  0  0  0  0  0  0
   48.7742  -31.6477 -101.9553 O   0  0  0  0  0  0  0  0  0  0  0  0
   50.0279  -29.6186 -101.7383 C   0  0  1  0  0  0  0  0  0  0  0  0
   50.9749  -30.5522 -101.1788 O   0  0  0  0  0  0  0  0  0  0  0  0
   50.7443  -28.6894 -102.7636 C   0  0  2  0  0  0  0  0  0  0  0  0
   51.0490  -33.0647 -108.4230 O   0  0  0  0  0  0  0  0  0  0  0  0
   46.7788  -25.1754 -103.1178 N   0  0  0  0  0  0  0  0  0  0  0  0
   46.6874  -26.5279 -103.1050 C   0  0  0  0  0  0  0  0  0  0  0  0
   47.7771  -27.3119 -102.9673 N   0  0  0  0  0  0  0  0  0  0  0  0
   49.0069  -26.7739 -102.9268 C   0  0  0  0  0  0  0  0  0  0  0  0
   49.1540  -25.3393 -102.9789 C   0  0  0  0  0  0  0  0  0  0  0  0
   47.9718  -24.5458 -103.0688 C   0  0  0  0  0  0  0  0  0  0  0  0
   48.0393  -23.1680 -103.1127 N   0  0  0  0  0  0  0  0  0  0  0  0
   50.4640  -25.0708 -102.9279 N   0  0  0  0  0  0  0  0  0  0  0  0
   51.1218  -26.1898 -102.8597 C   0  0  0  0  0  0  0  0  0  0  0  0
   50.2769  -27.2749 -102.8478 N   0  0  0  0  0  0  0  0  0  0  0  0
  2  1  1  1  0  0  0
  2  3  1  0  0  0  0
  2  5  1  0  0  0  0
  3  4  1  0  0  0  0
  3 17  1  0  0  0  0
  5  6  1  0  0  0  0
  7  6  1  6  0  0  0
  7  8  1  0  0  0  0
  7  9  1  0  0  0  0
 10  9  1  6  0  0  0
 10 11  1  0  0  0  0
 10 12  1  0  0  0  0
 11 16  1  0  0  0  0
 12 13  1  1  0  0  0
 12 14  1  0  0  0  0
 14 15  1  6  0  0  0
 14 16  1  0  0  0  0
 16 27  1  6  0  0  0
 18 19  2  0  0  0  0
 18 23  1  0  0  0  0
 19 20  1  0  0  0  0
 20 21  2  0  0  0  0
 21 22  1  0  0  0  0
 21 27  1  0  0  0  0
 22 23  2  0  0  0  0
 22 25  1  0  0  0  0
 23 24  1  0  0  0  0
 25 26  2  0  0  0  0
 26 27  1  0  0  0  0
M  END
>  <CHROM.1>
148.23892926,-177.77229508,166.43183341,175.67715656,-93.54373369,178.39701672
66.30541103,49.05730434,-29.71641222,-104.26257954,-1.47714724,-0.63165502
0.53454751

>  <Name>
ligand

>  <RI>
0

>  <Rbt.Current_Directory>
/home/itssahil/PROJECTS/Mol_Feturizer/New_Systems/rnas/4L81

>  <Rbt.Executable>
rbdock ($Id: //depot/dev/client3/rdock/2013.1/src/exe/rbdock.cxx#4 $)

>  <Rbt.Library>
libRbt.so (2013.1, Build901 2013/11/27)

>  <Rbt.Parameter_File>
/export/apps/rDock/src/rDock_2013.1_src/data/scripts/dock_solv.prm

>  <Rbt.Receptor>
prm/pocket_docking_7.prm

>  <SCORE>
-10.379

>  <SCORE.INTER>
-7.51379

>  <SCORE.INTER.CONST>
1

>  <SCORE.INTER.POLAR>
0

>  <SCORE.INTER.ROT>
7

>  <SCORE.INTER.SOLV>
9.62743

>  <SCORE.INTER.VDW>
-16.485

>  <SCORE.INTER.norm>
-0.278289

>  <SCORE.INTRA>
-2.86517

>  <SCORE.INTRA.DIHEDRAL>
-2.60777

>  <SCORE.INTRA.DIHEDRAL.0>
8.34559

>  <SCORE.INTRA.POLAR>
0

>  <SCORE.INTRA.POLAR.0>
0

>  <SCORE.INTRA.REPUL>
0

>  <SCORE.INTRA.REPUL.0>
0

>  <SCORE.INTRA.SOLV>
-1.01382

>  <SCORE.INTRA.SOLV.lig_0>
-48.829

>  <SCORE.INTRA.VDW>
-1.05438

>  <SCORE.INTRA.VDW.0>
-1.77092

>  <SCORE.INTRA.norm>
-0.106118

>  <SCORE.RESTR>
0

>  <SCORE.RESTR.CAVITY>
0

>  <SCORE.RESTR.norm>
0

>  <SCORE.SYSTEM>
0

>  <SCORE.SYSTEM.CONST>
0

>  <SCORE.SYSTEM.DIHEDRAL>
0

>  <SCORE.SYSTEM.SOLV>
0

>  <SCORE.SYSTEM.norm>
0

>  <SCORE.heavy>
27

>  <SCORE.norm>
-0.384406

>  <RMSD>
6.278

$$$$
ligand
 OpenBabel11021811503D
libRbt.so/2013.1/901 2013/11/27
 27 29  0  0  0  0  0  0  0  0999 V2000
   46.5461  -26.7343 -103.6545 N   0  0  0  0  0  0  0  0  0  0  0  0
   45.8571  -27.9728 -104.0340 C   0  0  2  0  0  0  0  0  0  0  0  0
   44.4058  -27.6698 -104.3415 C   0  0  0  0  0  0  0  0  0  0  0  0
   43.7468  -28.4435 -105.0196 O   0  0  0  0  0  0  0  0  0  0  0  0
   45.9185  -29.0140 -102.9082 C   0  0  0  0  0  0  0  0  0  0  0  0
   47.3324  -29.5541 -102.7469 C   0  0  0  0  0  0  0  0  0  0  0  0
   47.4494  -30.9336 -101.5441 S   0  0  2  0  0  0  0  0  0  0  0  0
   47.6909  -30.1001  -99.9420 C   0  0  0  0  0  0  0  0  0  0  0  0
   49.1548  -31.3429 -101.9089 C   0  0  0  0  0  0  0  0  0  0  0  0
   49.4013  -31.6772 -103.3561 C   0  0  1  0  0  0  0  0  0  0  0  0
   50.7708  -32.0953 -103.4852 O   0  0  0  0  0  0  0  0  0  0  0  0
   48.5741  -32.8827 -103.5563 C   0  0  1  0  0  0  0  0  0  0  0  0
   47.3276  -32.5161 -104.1455 O   0  0  0  0  0  0  0  0  0  0  0  0
   49.3879  -33.6743 -104.5326 C   0  0  1  0  0  0  0  0  0  0  0  0
   49.0690  -33.2843 -105.8844 O   0  0  0  0  0  0  0  0  0  0  0  0
   50.8778  -33.3388 -104.2231 C   0  0  2  0  0  0  0  0  0  0  0  0
   43.8750  -26.6707 -103.8888 O   0  0  0  0  0  0  0  0  0  0  0  0
   53.1466  -34.3904  -99.5386 N   0  0  0  0  0  0  0  0  0  0  0  0
   52.5562  -33.2350  -99.9314 C   0  0  0  0  0  0  0  0  0  0  0  0
   51.9757  -33.1106 -101.1432 N   0  0  0  0  0  0  0  0  0  0  0  0
   52.0427  -34.1080 -102.0401 C   0  0  0  0  0  0  0  0  0  0  0  0
   52.6981  -35.3418 -101.6790 C   0  0  0  0  0  0  0  0  0  0  0  0
   53.2499  -35.4504 -100.3678 C   0  0  0  0  0  0  0  0  0  0  0  0
   53.8817  -36.6053  -99.9535 N   0  0  0  0  0  0  0  0  0  0  0  0
   52.6298  -36.1547 -102.7398 N   0  0  0  0  0  0  0  0  0  0  0  0
   52.0116  -35.5398 -103.7037 C   0  0  0  0  0  0  0  0  0  0  0  0
   51.6186  -34.2761 -103.3292 N   0  0  0  0  0  0  0  0  0  0  0  0
  2  1  1  1  0  0  0
  2  3  1  0  0  0  0
  2  5  1  0  0  0  0
  3  4  1  0  0  0  0
  3 17  1  0  0  0  0
  5  6  1  0  0  0  0
  7  6  1  6  0  0  0
  7  8  1  0  0  0  0
  7  9  1  0  0  0  0
 10  9  1  1  0  0  0
 10 11  1  0  0  0  0
 10 12  1  0  0  0  0
 11 16  1  0  0  0  0
 12 13  1  6  0  0  0
 12 14  1  0  0  0  0
 14 15  1  6  0  0  0
 14 16  1  0  0  0  0
 16 27  1  1  0  0  0
 18 19  2  0  0  0  0
 18 23  1  0  0  0  0
 19 20  1  0  0  0  0
 20 21  2  0  0  0  0
 21 22  1  0  0  0  0
 21 27  1  0  0  0  0
 22 23  2  0  0  0  0
 22 25  1  0  0  0  0
 23 24  1  0  0  0  0
 25 26  2  0  0  0  0
 26 27  1  0  0  0  0
M  END
>  <CHROM.1>
159.58459997,-70.28618892,-173.75712004,-87.33755395,-57.25267546,-175.08390083
4.87385435,49.17431904,-31.93899993,-102.71531010,-3.02902015,0.76345575
-2.04166522

>  <Name>
ligand

>  <RI>
0

>  <Rbt.Current_Directory>
/home/itssahil/PROJECTS/Mol_Feturizer/New_Systems/rnas/4L81

>  <Rbt.Executable>
rbdock ($Id: //depot/dev/client3/rdock/2013.1/src/exe/rbdock.cxx#4 $)

>  <Rbt.Library>
libRbt.so (2013.1, Build901 2013/11/27)

>  <Rbt.Parameter_File>
/export/apps/rDock/src/rDock_2013.1_src/data/scripts/dock_solv.prm

>  <Rbt.Receptor>
prm/pocket_docking_8.prm

>  <SCORE>
-18.0556

>  <SCORE.INTER>
-16.0001

>  <SCORE.INTER.CONST>
1

>  <SCORE.INTER.POLAR>
0

>  <SCORE.INTER.ROT>
7

>  <SCORE.INTER.SOLV>
6.83016

>  <SCORE.INTER.VDW>
-21.2101

>  <SCORE.INTER.norm>
-0.592595

>  <SCORE.INTRA>
-2.05551

>  <SCORE.INTRA.DIHEDRAL>
-3.33105

>  <SCORE.INTRA.DIHEDRAL.0>
8.34559

>  <SCORE.INTRA.POLAR>
0

>  <SCORE.INTRA.POLAR.0>
0

>  <SCORE.INTRA.REPUL>
0

>  <SCORE.INTRA.REPUL.0>
0

>  <SCORE.INTRA.SOLV>
-0.23968

>  <SCORE.INTRA.SOLV.lig_0>
-48.829

>  <SCORE.INTRA.VDW>
-0.270147

>  <SCORE.INTRA.VDW.0>
-1.77092

>  <SCORE.INTRA.norm>
-0.07613

>  <SCORE.RESTR>
0

>  <SCORE.RESTR.CAVITY>
0

>  <SCORE.RESTR.norm>
0

>  <SCORE.SYSTEM>
0

>  <SCORE.SYSTEM.CONST>
0

>  <SCORE.SYSTEM.DIHEDRAL>
0

>  <SCORE.SYSTEM.SOLV>
0

>  <SCORE.SYSTEM.norm>
0

>  <SCORE.heavy>
27

>  <SCORE.norm>
-0.668725

>  <RMSD>
6.280

$$$$
ligand
 OpenBabel11021811503D
libRbt.so/2013.1/901 2013/11/27
 27 29  0  0  0  0  0  0  0  0999 V2000
   48.1344  -29.4582 -100.2256 N   0  0  0  0  0  0  0  0  0  0  0  0
   46.9795  -29.8859 -101.0230 C   0  0  2  0  0  0  0  0  0  0  0  0
   45.7921  -30.1126 -100.1112 C   0  0  0  0  0  0  0  0  0  0  0  0
   45.9569  -30.2367  -98.9070 O   0  0  0  0  0  0  0  0  0  0  0  0
   47.2758  -31.1855 -101.7837 C   0  0  0  0  0  0  0  0  0  0  0  0
   48.6149  -31.0988 -102.5022 C   0  0  0  0  0  0  0  0  0  0  0  0
   49.1045  -32.6676 -103.3162 S   0  0  2  0  0  0  0  0  0  0  0  0
   50.9241  -32.5880 -103.3645 C   0  0  0  0  0  0  0  0  0  0  0  0
   48.7537  -32.1186 -104.9848 C   0  0  0  0  0  0  0  0  0  0  0  0
   47.3086  -32.2671 -105.3804 C   0  0  1  0  0  0  0  0  0  0  0  0
   46.6063  -31.0947 -104.9343 O   0  0  0  0  0  0  0  0  0  0  0  0
   47.3652  -32.1873 -106.8528 C   0  0  1  0  0  0  0  0  0  0  0  0
   47.3589  -33.5029 -107.4046 O   0  0  0  0  0  0  0  0  0  0  0  0
   46.0851  -31.4863 -107.1876 C   0  0  1  0  0  0  0  0  0  0  0  0
   45.0115  -32.4402 -107.3243 O   0  0  0  0  0  0  0  0  0  0  0  0
   45.7932  -30.5292 -105.9932 C   0  0  2  0  0  0  0  0  0  0  0  0
   44.6618  -30.1398 -100.5657 O   0  0  0  0  0  0  0  0  0  0  0  0
   48.8730  -26.8819 -108.3191 N   0  0  0  0  0  0  0  0  0  0  0  0
   48.8586  -28.2186 -108.5447 C   0  0  0  0  0  0  0  0  0  0  0  0
   47.9911  -29.0361 -107.9121 N   0  0  0  0  0  0  0  0  0  0  0  0
   47.1668  -28.5589 -106.9654 C   0  0  0  0  0  0  0  0  0  0  0  0
   47.1772  -27.1479 -106.6633 C   0  0  0  0  0  0  0  0  0  0  0  0
   48.0714  -26.3110 -107.3951 C   0  0  0  0  0  0  0  0  0  0  0  0
   48.1261  -24.9515 -107.1639 N   0  0  0  0  0  0  0  0  0  0  0  0
   46.2785  -26.9412 -105.6936 N   0  0  0  0  0  0  0  0  0  0  0  0
   45.7344  -28.0773 -105.3733 C   0  0  0  0  0  0  0  0  0  0  0  0
   46.2364  -29.1110 -106.1289 N   0  0  0  0  0  0  0  0  0  0  0  0
  2  1  1  1  0  0  0
  2  3  1  0  0  0  0
  2  5  1  0  0  0  0
  3  4  1  0  0  0  0
  3 17  1  0  0  0  0
  5  6  1  0  0  0  0
  7  6  1  1  0  0  0
  7  8  1  0  0  0  0
  7  9  1  0  0  0  0
 10  9  1  1  0  0  0
 10 11  1  0  0  0  0
 10 12  1  0  0  0  0
 11 16  1  0  0  0  0
 12 13  1  6  0  0  0
 12 14  1  0  0  0  0
 14 15  1  1  0  0  0
 14 16  1  0  0  0  0
 16 27  1  6  0  0  0
 18 19  2  0  0  0  0
 18 23  1  0  0  0  0
 19 20  1  0  0  0  0
 20 21  2  0  0  0  0
 21 22  1  0  0  0  0
 21 27  1  0  0  0  0
 22 23  2  0  0  0  0
 22 25  1  0  0  0  0
 23 24  1  0  0  0  0
 25 26  2  0  0  0  0
 26 27  1  0  0  0  0
M  END
>  <CHROM.1>
-16.78451043,-48.03143262,175.07268380,-153.57944768,-84.00959018,85.59394615
93.80867132,47.33964468,-30.14800689,-104.75122196,1.82974387,-1.37373886
2.23530671

>  <Name>
ligand

>  <RI>
0

>  <Rbt.Current_Directory>
/home/itssahil/PROJECTS/Mol_Feturizer/New_Systems/rnas/4L81

>  <Rbt.Executable>
rbdock ($Id: //depot/dev/client3/rdock/2013.1/src/exe/rbdock.cxx#4 $)

>  <Rbt.Library>
libRbt.so (2013.1, Build901 2013/11/27)

>  <Rbt.Parameter_File>
/export/apps/rDock/src/rDock_2013.1_src/data/scripts/dock_solv.prm

>  <Rbt.Receptor>
prm/pocket_docking_6.prm

>  <SCORE>
-13.2201

>  <SCORE.INTER>
-12.3065

>  <SCORE.INTER.CONST>
1

>  <SCORE.INTER.POLAR>
0

>  <SCORE.INTER.ROT>
7

>  <SCORE.INTER.SOLV>
10.7633

>  <SCORE.INTER.VDW>
-20.0587

>  <SCORE.INTER.norm>
-0.455795

>  <SCORE.INTRA>
-0.916654

>  <SCORE.INTRA.DIHEDRAL>
1.12717

>  <SCORE.INTRA.DIHEDRAL.0>
8.34559

>  <SCORE.INTRA.POLAR>
0

>  <SCORE.INTRA.POLAR.0>
0

>  <SCORE.INTRA.REPUL>
0

>  <SCORE.INTRA.REPUL.0>
0

>  <SCORE.INTRA.SOLV>
-0.335239

>  <SCORE.INTRA.SOLV.lig_0>
-48.829

>  <SCORE.INTRA.VDW>
-1.31262

>  <SCORE.INTRA.VDW.0>
-1.77092

>  <SCORE.INTRA.norm>
-0.0339501

>  <SCORE.RESTR>
0.00307952

>  <SCORE.RESTR.CAVITY>
0.00307952

>  <SCORE.RESTR.norm>
0.000114056

>  <SCORE.SYSTEM>
0

>  <SCORE.SYSTEM.CONST>
0

>  <SCORE.SYSTEM.DIHEDRAL>
0

>  <SCORE.SYSTEM.SOLV>
0

>  <SCORE.SYSTEM.norm>
0

>  <SCORE.heavy>
27

>  <SCORE.norm>
-0.489632

>  <RMSD>
6.290

$$$$
ligand
 OpenBabel11021811503D
libRbt.so/2013.1/901 2013/11/27
 27 29  0  0  0  0  0  0  0  0999 V2000
   50.4403  -29.9702 -102.7205 N   0  0  0  0  0  0  0  0  0  0  0  0
   50.5817  -30.1975 -101.2779 C   0  0  2  0  0  0  0  0  0  0  0  0
   50.7503  -31.6790 -101.0140 C   0  0  0  0  0  0  0  0  0  0  0  0
   51.0039  -32.0774  -99.8872 O   0  0  0  0  0  0  0  0  0  0  0  0
   49.3525  -29.6936 -100.5095 C   0  0  0  0  0  0  0  0  0  0  0  0
   48.0964  -30.4284 -100.9558 C   0  0  0  0  0  0  0  0  0  0  0  0
   46.5955  -29.3746 -100.9414 S   0  0  2  0  0  0  0  0  0  0  0  0
   46.3211  -29.0254  -99.1744 C   0  0  0  0  0  0  0  0  0  0  0  0
   45.4317  -30.7207 -101.1470 C   0  0  0  0  0  0  0  0  0  0  0  0
   45.0550  -30.9823 -102.5810 C   0  0  1  0  0  0  0  0  0  0  0  0
   44.7049  -29.7240 -103.1819 O   0  0  0  0  0  0  0  0  0  0  0  0
   46.3380  -31.3924 -103.1840 C   0  0  1  0  0  0  0  0  0  0  0  0
   46.4087  -32.8164 -103.2377 O   0  0  0  0  0  0  0  0  0  0  0  0
   46.2372  -30.8330 -104.5693 C   0  0  1  0  0  0  0  0  0  0  0  0
   45.5765  -31.7720 -105.4429 O   0  0  0  0  0  0  0  0  0  0  0  0
   45.3852  -29.5340 -104.4481 C   0  0  2  0  0  0  0  0  0  0  0  0
   50.6019  -32.4866 -101.9143 O   0  0  0  0  0  0  0  0  0  0  0  0
   45.8317  -24.3688 -105.5968 N   0  0  0  0  0  0  0  0  0  0  0  0
   44.8839  -25.2346 -106.0325 C   0  0  0  0  0  0  0  0  0  0  0  0
   44.8593  -26.5222 -105.6294 N   0  0  0  0  0  0  0  0  0  0  0  0
   45.8335  -27.0132 -104.8461 C   0  0  0  0  0  0  0  0  0  0  0  0
   46.8859  -26.1365 -104.3918 C   0  0  0  0  0  0  0  0  0  0  0  0
   46.8427  -24.7692 -104.7970 C   0  0  0  0  0  0  0  0  0  0  0  0
   47.8116  -23.8742 -104.3910 N   0  0  0  0  0  0  0  0  0  0  0  0
   47.7181  -26.8682 -103.6416 N   0  0  0  0  0  0  0  0  0  0  0  0
   47.2848  -28.0930 -103.6027 C   0  0  0  0  0  0  0  0  0  0  0  0
   46.1214  -28.2425 -104.3209 N   0  0  0  0  0  0  0  0  0  0  0  0
  2  1  1  6  0  0  0
  2  3  1  0  0  0  0
  2  5  1  0  0  0  0
  3  4  1  0  0  0  0
  3 17  1  0  0  0  0
  5  6  1  0  0  0  0
  7  6  1  1  0  0  0
  7  8  1  0  0  0  0
  7  9  1  0  0  0  0
 10  9  1  1  0  0  0
 10 11  1  0  0  0  0
 10 12  1  0  0  0  0
 11 16  1  0  0  0  0
 12 13  1  6  0  0  0
 12 14  1  0  0  0  0
 14 15  1  6  0  0  0
 14 16  1  0  0  0  0
 16 27  1  1  0  0  0
 18 19  2  0  0  0  0
 18 23  1  0  0  0  0
 19 20  1  0  0  0  0
 20 21  2  0  0  0  0
 21 22  1  0  0  0  0
 21 27  1  0  0  0  0
 22 23  2  0  0  0  0
 22 25  1  0  0  0  0
 23 24  1  0  0  0  0
 25 26  2  0  0  0  0
 26 27  1  0  0  0  0
M  END
>  <CHROM.1>
173.46250538,60.95869574,-145.49522538,-67.02469602,-93.62597326,-48.70099838
-104.17908141,47.13938526,-29.15473655,-102.93814121,-1.04756568,-0.54806408
-0.31986056

>  <Name>
ligand

>  <RI>
0

>  <Rbt.Current_Directory>
/home/itssahil/PROJECTS/Mol_Feturizer/New_Systems/rnas/4L81

>  <Rbt.Executable>
rbdock ($Id: //depot/dev/client3/rdock/2013.1/src/exe/rbdock.cxx#4 $)

>  <Rbt.Library>
libRbt.so (2013.1, Build901 2013/11/27)

>  <Rbt.Parameter_File>
/export/apps/rDock/src/rDock_2013.1_src/data/scripts/dock_solv.prm

>  <Rbt.Receptor>
prm/pocket_docking_5.prm

>  <SCORE>
-14.7717

>  <SCORE.INTER>
-14.9994

>  <SCORE.INTER.CONST>
1

>  <SCORE.INTER.POLAR>
0

>  <SCORE.INTER.ROT>
7

>  <SCORE.INTER.SOLV>
9.23777

>  <SCORE.INTER.VDW>
-21.3455

>  <SCORE.INTER.norm>
-0.555533

>  <SCORE.INTRA>
0.22767

>  <SCORE.INTRA.DIHEDRAL>
0.550221

>  <SCORE.INTRA.DIHEDRAL.0>
8.34559

>  <SCORE.INTRA.POLAR>
0

>  <SCORE.INTRA.POLAR.0>
0

>  <SCORE.INTRA.REPUL>
0

>  <SCORE.INTRA.REPUL.0>
0

>  <SCORE.INTRA.SOLV>
0.323081

>  <SCORE.INTRA.SOLV.lig_0>
-48.829

>  <SCORE.INTRA.VDW>
-0.208981

>  <SCORE.INTRA.VDW.0>
-1.77092

>  <SCORE.INTRA.norm>
0.00843222

>  <SCORE.RESTR>
0

>  <SCORE.RESTR.CAVITY>
0

>  <SCORE.RESTR.norm>
0

>  <SCORE.SYSTEM>
0

>  <SCORE.SYSTEM.CONST>
0

>  <SCORE.SYSTEM.DIHEDRAL>
0

>  <SCORE.SYSTEM.SOLV>
0

>  <SCORE.SYSTEM.norm>
0

>  <SCORE.heavy>
27

>  <SCORE.norm>
-0.547101

>  <RMSD>
6.315

$$$$
ligand
 OpenBabel11021811503D
libRbt.so/2013.1/901 2013/11/27
 27 29  0  0  0  0  0  0  0  0999 V2000
   49.8999  -29.7750 -103.4158 N   0  0  0  0  0  0  0  0  0  0  0  0
   50.1410  -29.5219 -101.9908 C   0  0  2  0  0  0  0  0  0  0  0  0
   50.2743  -30.8407 -101.2589 C   0  0  0  0  0  0  0  0  0  0  0  0
   50.8107  -30.8832 -100.1620 O   0  0  0  0  0  0  0  0  0  0  0  0
   48.9924  -28.7205 -101.3633 C   0  0  0  0  0  0  0  0  0  0  0  0
   47.6570  -29.4110 -101.6018 C   0  0  0  0  0  0  0  0  0  0  0  0
   46.2371  -28.5223 -100.8551 S   0  0  2  0  0  0  0  0  0  0  0  0
   46.3801  -28.8833  -99.0750 C   0  0  0  0  0  0  0  0  0  0  0  0
   45.0088  -29.7501 -101.2940 C   0  0  0  0  0  0  0  0  0  0  0  0
   44.4487  -29.5779 -102.6809 C   0  0  1  0  0  0  0  0  0  0  0  0
   44.4952  -28.1780 -103.0049 O   0  0  0  0  0  0  0  0  0  0  0  0
   45.4634  -30.2377 -103.5251 C   0  0  1  0  0  0  0  0  0  0  0  0
   45.0448  -31.5679 -103.8261 O   0  0  0  0  0  0  0  0  0  0  0  0
   45.4430  -29.4019 -104.7673 C   0  0  1  0  0  0  0  0  0  0  0  0
   44.4344  -29.8833 -105.6796 O   0  0  0  0  0  0  0  0  0  0  0  0
   45.0924  -27.9551 -104.3071 C   0  0  2  0  0  0  0  0  0  0  0  0
   49.8193  -31.8629 -101.7418 O   0  0  0  0  0  0  0  0  0  0  0  0
   50.1214  -26.5161 -105.2220 N   0  0  0  0  0  0  0  0  0  0  0  0
   49.4723  -27.6059 -105.7005 C   0  0  0  0  0  0  0  0  0  0  0  0
   48.1717  -27.8358 -105.4238 N   0  0  0  0  0  0  0  0  0  0  0  0
   47.4973  -27.0315 -104.5860 C   0  0  0  0  0  0  0  0  0  0  0  0
   48.1613  -25.8818 -104.0205 C   0  0  0  0  0  0  0  0  0  0  0  0
   49.5206  -25.6455 -104.3835 C   0  0  0  0  0  0  0  0  0  0  0  0
   50.2127  -24.5595 -103.8872 N   0  0  0  0  0  0  0  0  0  0  0  0
   47.2791  -25.2619 -103.2279 N   0  0  0  0  0  0  0  0  0  0  0  0
   46.1582  -25.9196 -103.2484 C   0  0  0  0  0  0  0  0  0  0  0  0
   46.2291  -27.0169 -104.0746 N   0  0  0  0  0  0  0  0  0  0  0  0
  2  1  1  6  0  0  0
  2  3  1  0  0  0  0
  2  5  1  0  0  0  0
  3  4  1  0  0  0  0
  3 17  1  0  0  0  0
  5  6  1  0  0  0  0
  7  6  1  6  0  0  0
  7  8  1  0  0  0  0
  7  9  1  0  0  0  0
 10  9  1  1  0  0  0
 10 11  1  0  0  0  0
 10 12  1  0  0  0  0
 11 16  1  0  0  0  0
 12 13  1  6  0  0  0
 12 14  1  0  0  0  0
 14 15  1  6  0  0  0
 14 16  1  0  0  0  0
 16 27  1  1  0  0  0
 18 19  2  0  0  0  0
 18 23  1  0  0  0  0
 19 20  1  0  0  0  0
 20 21  2  0  0  0  0
 21 22  1  0  0  0  0
 21 27  1  0  0  0  0
 22 23  2  0  0  0  0
 22 25  1  0  0  0  0
 23 24  1  0  0  0  0
 25 26  2  0  0  0  0
 26 27  1  0  0  0  0
M  END
>  <CHROM.1>
160.97618216,54.61366257,179.07477581,-75.21940117,-85.50377739,-29.55834235
137.29512735,47.40898563,-28.53829500,-102.97419404,-0.90344900,0.20853818
2.44452971

>  <Name>
ligand

>  <RI>
0

>  <Rbt.Current_Directory>
/home/itssahil/PROJECTS/Mol_Feturizer/New_Systems/rnas/4L81

>  <Rbt.Executable>
rbdock ($Id: //depot/dev/client3/rdock/2013.1/src/exe/rbdock.cxx#4 $)

>  <Rbt.Library>
libRbt.so (2013.1, Build901 2013/11/27)

>  <Rbt.Parameter_File>
/export/apps/rDock/src/rDock_2013.1_src/data/scripts/dock_solv.prm

>  <Rbt.Receptor>
prm/pocket_docking_3.prm

>  <SCORE>
-12.1935

>  <SCORE.INTER>
-9.81837

>  <SCORE.INTER.CONST>
1

>  <SCORE.INTER.POLAR>
0

>  <SCORE.INTER.ROT>
7

>  <SCORE.INTER.SOLV>
10.2135

>  <SCORE.INTER.VDW>
-18.2167

>  <SCORE.INTER.norm>
-0.363643

>  <SCORE.INTRA>
-2.37518

>  <SCORE.INTRA.DIHEDRAL>
-1.40744

>  <SCORE.INTRA.DIHEDRAL.0>
8.34559

>  <SCORE.INTRA.POLAR>
0

>  <SCORE.INTRA.POLAR.0>
0

>  <SCORE.INTRA.REPUL>
0

>  <SCORE.INTRA.REPUL.0>
0

>  <SCORE.INTRA.SOLV>
0.98269

>  <SCORE.INTRA.SOLV.lig_0>
-48.829

>  <SCORE.INTRA.VDW>
-2.1628

>  <SCORE.INTRA.VDW.0>
-1.77092

>  <SCORE.INTRA.norm>
-0.0879695

>  <SCORE.RESTR>
0

>  <SCORE.RESTR.CAVITY>
0

>  <SCORE.RESTR.norm>
0

>  <SCORE.SYSTEM>
0

>  <SCORE.SYSTEM.CONST>
0

>  <SCORE.SYSTEM.DIHEDRAL>
0

>  <SCORE.SYSTEM.SOLV>
0

>  <SCORE.SYSTEM.norm>
0

>  <SCORE.heavy>
27

>  <SCORE.norm>
-0.451613

>  <RMSD>
6.322

$$$$
ligand
 OpenBabel11021811503D
libRbt.so/2013.1/901 2013/11/27
 27 29  0  0  0  0  0  0  0  0999 V2000
   51.6147  -28.8114 -102.6975 N   0  0  0  0  0  0  0  0  0  0  0  0
   50.2927  -29.4116 -102.4858 C   0  0  2  0  0  0  0  0  0  0  0  0
   50.4220  -30.6069 -101.5653 C   0  0  0  0  0  0  0  0  0  0  0  0
   51.1633  -31.5322 -101.8603 O   0  0  0  0  0  0  0  0  0  0  0  0
   49.6689  -29.8711 -103.8106 C   0  0  0  0  0  0  0  0  0  0  0  0
   48.2015  -30.2292 -103.6225 C   0  0  0  0  0  0  0  0  0  0  0  0
   47.9496  -31.8198 -102.7451 S   0  0  2  0  0  0  0  0  0  0  0  0
   48.6931  -33.0571 -103.8567 C   0  0  0  0  0  0  0  0  0  0  0  0
   46.2323  -32.0126 -103.2169 C   0  0  0  0  0  0  0  0  0  0  0  0
   45.2726  -31.2657 -102.3292 C   0  0  1  0  0  0  0  0  0  0  0  0
   45.6101  -29.8695 -102.3905 O   0  0  0  0  0  0  0  0  0  0  0  0
   43.9879  -31.4181 -103.0392 C   0  0  1  0  0  0  0  0  0  0  0  0
   43.2459  -32.4914 -102.4621 O   0  0  0  0  0  0  0  0  0  0  0  0
   43.3062  -30.1153 -102.7566 C   0  0  1  0  0  0  0  0  0  0  0  0
   42.5779  -30.1892 -101.5135 O   0  0  0  0  0  0  0  0  0  0  0  0
   44.4396  -29.0521 -102.6429 C   0  0  2  0  0  0  0  0  0  0  0  0
   49.8148  -30.6406 -100.5094 O   0  0  0  0  0  0  0  0  0  0  0  0
   46.7055  -24.8180 -104.9093 N   0  0  0  0  0  0  0  0  0  0  0  0
   46.6519  -25.1205 -103.5888 C   0  0  0  0  0  0  0  0  0  0  0  0
   46.0779  -26.2577 -103.1438 N   0  0  0  0  0  0  0  0  0  0  0  0
   45.4580  -27.0906 -103.9956 C   0  0  0  0  0  0  0  0  0  0  0  0
   45.4548  -26.7868 -105.4063 C   0  0  0  0  0  0  0  0  0  0  0  0
   46.1214  -25.6023 -105.8397 C   0  0  0  0  0  0  0  0  0  0  0  0
   46.1653  -25.2567 -107.1751 N   0  0  0  0  0  0  0  0  0  0  0  0
   44.7748  -27.7610 -106.0223 N   0  0  0  0  0  0  0  0  0  0  0  0
   44.3608  -28.6140 -105.1332 C   0  0  0  0  0  0  0  0  0  0  0  0
   44.7578  -28.2580 -103.8654 N   0  0  0  0  0  0  0  0  0  0  0  0
  2  1  1  6  0  0  0
  2  3  1  0  0  0  0
  2  5  1  0  0  0  0
  3  4  1  0  0  0  0
  3 17  1  0  0  0  0
  5  6  1  0  0  0  0
  7  6  1  6  0  0  0
  7  8  1  0  0  0  0
  7  9  1  0  0  0  0
 10  9  1  6  0  0  0
 10 11  1  0  0  0  0
 10 12  1  0  0  0  0
 11 16  1  0  0  0  0
 12 13  1  1  0  0  0
 12 14  1  0  0  0  0
 14 15  1  1  0  0  0
 14 16  1  0  0  0  0
 16 27  1  6  0  0  0
 18 19  2  0  0  0  0
 18 23  1  0  0  0  0
 19 20  1  0  0  0  0
 20 21  2  0  0  0  0
 21 22  1  0  0  0  0
 21 27  1  0  0  0  0
 22 23  2  0  0  0  0
 22 25  1  0  0  0  0
 23 24  1  0  0  0  0
 25 26  2  0  0  0  0
 26 27  1  0  0  0  0
M  END
>  <CHROM.1>
-57.36133382,-168.57171667,-73.89004107,-63.01939251,-83.67162242,59.52700417
-83.07519745,46.71482479,-29.40512465,-103.34012033,-0.85032485,-0.08173469
-0.44339817

>  <Name>
ligand

>  <RI>
0

>  <Rbt.Current_Directory>
/home/itssahil/PROJECTS/Mol_Feturizer/New_Systems/rnas/4L81

>  <Rbt.Executable>
rbdock ($Id: //depot/dev/client3/rdock/2013.1/src/exe/rbdock.cxx#4 $)

>  <Rbt.Library>
libRbt.so (2013.1, Build901 2013/11/27)

>  <Rbt.Parameter_File>
/export/apps/rDock/src/rDock_2013.1_src/data/scripts/dock_solv.prm

>  <Rbt.Receptor>
prm/pocket_docking_4.prm

>  <SCORE>
-13.432

>  <SCORE.INTER>
-10.2202

>  <SCORE.INTER.CONST>
1

>  <SCORE.INTER.POLAR>
0

>  <SCORE.INTER.ROT>
7

>  <SCORE.INTER.SOLV>
18.6843

>  <SCORE.INTER.VDW>
-21.3083

>  <SCORE.INTER.norm>
-0.378527

>  <SCORE.INTRA>
-3.21176

>  <SCORE.INTRA.DIHEDRAL>
-2.9929

>  <SCORE.INTRA.DIHEDRAL.0>
8.34559

>  <SCORE.INTRA.POLAR>
0

>  <SCORE.INTRA.POLAR.0>
0

>  <SCORE.INTRA.REPUL>
0

>  <SCORE.INTRA.REPUL.0>
0

>  <SCORE.INTRA.SOLV>
-1.08006

>  <SCORE.INTRA.SOLV.lig_0>
-48.829

>  <SCORE.INTRA.VDW>
-1.17528

>  <SCORE.INTRA.VDW.0>
-1.77092

>  <SCORE.INTRA.norm>
-0.118954

>  <SCORE.RESTR>
0

>  <SCORE.RESTR.CAVITY>
0

>  <SCORE.RESTR.norm>
0

>  <SCORE.SYSTEM>
0

>  <SCORE.SYSTEM.CONST>
0

>  <SCORE.SYSTEM.DIHEDRAL>
0

>  <SCORE.SYSTEM.SOLV>
0

>  <SCORE.SYSTEM.norm>
0

>  <SCORE.heavy>
27

>  <SCORE.norm>
-0.497481

>  <RMSD>
6.337

$$$$
ligand
 OpenBabel11021811503D
libRbt.so/2013.1/901 2013/11/27
 27 29  0  0  0  0  0  0  0  0999 V2000
   49.6790  -33.5516 -106.0405 N   0  0  0  0  0  0  0  0  0  0  0  0
   50.1713  -32.6491 -104.9936 C   0  0  2  0  0  0  0  0  0  0  0  0
   51.0866  -33.4114 -104.0588 C   0  0  0  0  0  0  0  0  0  0  0  0
   50.9777  -34.6230 -103.9448 O   0  0  0  0  0  0  0  0  0  0  0  0
   49.0146  -32.0541 -104.1792 C   0  0  0  0  0  0  0  0  0  0  0  0
   49.5321  -31.0545 -103.1545 C   0  0  0  0  0  0  0  0  0  0  0  0
   48.2442  -29.8919 -102.5604 S   0  0  2  0  0  0  0  0  0  0  0  0
   49.0332  -29.0440 -101.1539 C   0  0  0  0  0  0  0  0  0  0  0  0
   47.3011  -31.1182 -101.6574 C   0  0  0  0  0  0  0  0  0  0  0  0
   45.8993  -30.6806 -101.3253 C   0  0  1  0  0  0  0  0  0  0  0  0
   45.9278  -29.2663 -101.0683 O   0  0  0  0  0  0  0  0  0  0  0  0
   45.1910  -30.8597 -102.6074 C   0  0  1  0  0  0  0  0  0  0  0  0
   44.5006  -32.1082 -102.6030 O   0  0  0  0  0  0  0  0  0  0  0  0
   44.2068  -29.7312 -102.5930 C   0  0  1  0  0  0  0  0  0  0  0  0
   42.9957  -30.1301 -101.9182 O   0  0  0  0  0  0  0  0  0  0  0  0
   44.8920  -28.5724 -101.8083 C   0  0  2  0  0  0  0  0  0  0  0  0
   51.9592  -32.8288 -103.4391 O   0  0  0  0  0  0  0  0  0  0  0  0
   44.9285  -25.1228 -105.8453 N   0  0  0  0  0  0  0  0  0  0  0  0
   43.9390  -25.9831 -105.5008 C   0  0  0  0  0  0  0  0  0  0  0  0
   44.0389  -26.7833 -104.4188 N   0  0  0  0  0  0  0  0  0  0  0  0
   45.1687  -26.8163 -103.6935 C   0  0  0  0  0  0  0  0  0  0  0  0
   46.2638  -25.9465 -104.0492 C   0  0  0  0  0  0  0  0  0  0  0  0
   46.0948  -25.0767 -105.1673 C   0  0  0  0  0  0  0  0  0  0  0  0
   47.0978  -24.2123 -105.5564 N   0  0  0  0  0  0  0  0  0  0  0  0
   47.2556  -26.1791 -103.1813 N   0  0  0  0  0  0  0  0  0  0  0  0
   46.8786  -27.1016 -102.3469 C   0  0  0  0  0  0  0  0  0  0  0  0
   45.5975  -27.5285 -102.6077 N   0  0  0  0  0  0  0  0  0  0  0  0
  2  1  1  6  0  0  0
  2  3  1  0  0  0  0
  2  5  1  0  0  0  0
  3  4  1  0  0  0  0
  3 17  1  0  0  0  0
  5  6  1  0  0  0  0
  7  6  1  6  0  0  0
  7  8  1  0  0  0  0
  7  9  1  0  0  0  0
 10  9  1  6  0  0  0
 10 11  1  0  0  0  0
 10 12  1  0  0  0  0
 11 16  1  0  0  0  0
 12 13  1  1  0  0  0
 12 14  1  0  0  0  0
 14 15  1  1  0  0  0
 14 16  1  0  0  0  0
 16 27  1  6  0  0  0
 18 19  2  0  0  0  0
 18 23  1  0  0  0  0
 19 20  1  0  0  0  0
 20 21  2  0  0  0  0
 21 22  1  0  0  0  0
 21 27  1  0  0  0  0
 22 23  2  0  0  0  0
 22 25  1  0  0  0  0
 23 24  1  0  0  0  0
 25 26  2  0  0  0  0
 26 27  1  0  0  0  0
M  END
>  <CHROM.1>
-24.55349735,-176.47566088,159.93840760,169.75899910,-162.69282917,-34.58846836
162.67583287,47.05461319,-29.47802398,-103.30961536,-0.83725553,0.43739757
-0.39912543

>  <Name>
ligand

>  <RI>
0

>  <Rbt.Current_Directory>
/home/itssahil/PROJECTS/Mol_Feturizer/New_Systems/rnas/4L81

>  <Rbt.Executable>
rbdock ($Id: //depot/dev/client3/rdock/2013.1/src/exe/rbdock.cxx#4 $)

>  <Rbt.Library>
libRbt.so (2013.1, Build901 2013/11/27)

>  <Rbt.Parameter_File>
/export/apps/rDock/src/rDock_2013.1_src/data/scripts/dock_solv.prm

>  <Rbt.Receptor>
prm/pocket_docking_7.prm

>  <SCORE>
-15.0656

>  <SCORE.INTER>
-14.4918

>  <SCORE.INTER.CONST>
1

>  <SCORE.INTER.POLAR>
0

>  <SCORE.INTER.ROT>
7

>  <SCORE.INTER.SOLV>
9.41455

>  <SCORE.INTER.VDW>
-21.066

>  <SCORE.INTER.norm>
-0.536733

>  <SCORE.INTRA>
-0.573777

>  <SCORE.INTRA.DIHEDRAL>
-0.0135564

>  <SCORE.INTRA.DIHEDRAL.0>
8.34559

>  <SCORE.INTRA.POLAR>
0

>  <SCORE.INTRA.POLAR.0>
0

>  <SCORE.INTRA.REPUL>
0

>  <SCORE.INTRA.REPUL.0>
0

>  <SCORE.INTRA.SOLV>
-1.00374

>  <SCORE.INTRA.SOLV.lig_0>
-48.829

>  <SCORE.INTRA.VDW>
-0.0651295

>  <SCORE.INTRA.VDW.0>
-1.77092

>  <SCORE.INTRA.norm>
-0.021251

>  <SCORE.RESTR>
0

>  <SCORE.RESTR.CAVITY>
0

>  <SCORE.RESTR.norm>
0

>  <SCORE.SYSTEM>
0

>  <SCORE.SYSTEM.CONST>
0

>  <SCORE.SYSTEM.DIHEDRAL>
0

>  <SCORE.SYSTEM.SOLV>
0

>  <SCORE.SYSTEM.norm>
0

>  <SCORE.heavy>
27

>  <SCORE.norm>
-0.557984

>  <RMSD>
6.353

$$$$
ligand
 OpenBabel11021811503D
libRbt.so/2013.1/901 2013/11/27
 27 29  0  0  0  0  0  0  0  0999 V2000
   52.2289  -33.1414 -103.7764 N   0  0  0  0  0  0  0  0  0  0  0  0
   51.1361  -32.3883 -103.1508 C   0  0  2  0  0  0  0  0  0  0  0  0
   51.2838  -32.4407 -101.6448 C   0  0  0  0  0  0  0  0  0  0  0  0
   50.7624  -31.5847 -100.9461 O   0  0  0  0  0  0  0  0  0  0  0  0
   49.7673  -32.9663 -103.5353 C   0  0  0  0  0  0  0  0  0  0  0  0
   48.6426  -32.0625 -103.0505 C   0  0  0  0  0  0  0  0  0  0  0  0
   46.9716  -32.7358 -103.3937 S   0  0  2  0  0  0  0  0  0  0  0  0
   46.7633  -32.5002 -105.1883 C   0  0  0  0  0  0  0  0  0  0  0  0
   46.0777  -31.2956 -102.8145 C   0  0  0  0  0  0  0  0  0  0  0  0
   46.4584  -30.8654 -101.4228 C   0  0  1  0  0  0  0  0  0  0  0  0
   47.6479  -30.0636 -101.5187 O   0  0  0  0  0  0  0  0  0  0  0  0
   45.3626  -29.9478 -101.0555 C   0  0  1  0  0  0  0  0  0  0  0  0
   44.3960  -30.6453 -100.2716 O   0  0  0  0  0  0  0  0  0  0  0  0
   46.0642  -28.9278 -100.2132 C   0  0  1  0  0  0  0  0  0  0  0  0
   46.1072  -29.3574  -98.8366 O   0  0  0  0  0  0  0  0  0  0  0  0
   47.5120  -28.8235 -100.7799 C   0  0  2  0  0  0  0  0  0  0  0  0
   51.8945  -33.3532 -101.1163 O   0  0  0  0  0  0  0  0  0  0  0  0
   45.7720  -25.4309 -104.4760 N   0  0  0  0  0  0  0  0  0  0  0  0
   45.0531  -26.3644 -103.8054 C   0  0  0  0  0  0  0  0  0  0  0  0
   45.6110  -27.1409 -102.8531 N   0  0  0  0  0  0  0  0  0  0  0  0
   46.9280  -27.0735 -102.5994 C   0  0  0  0  0  0  0  0  0  0  0  0
   47.7398  -26.1220 -103.3193 C   0  0  0  0  0  0  0  0  0  0  0  0
   47.0990  -25.2823 -104.2782 C   0  0  0  0  0  0  0  0  0  0  0  0
   47.8135  -24.3440 -104.9950 N   0  0  0  0  0  0  0  0  0  0  0  0
   48.9980  -26.2630 -102.8859 N   0  0  0  0  0  0  0  0  0  0  0  0
   49.0326  -27.2030 -101.9888 C   0  0  0  0  0  0  0  0  0  0  0  0
   47.7846  -27.7355 -101.7639 N   0  0  0  0  0  0  0  0  0  0  0  0
  2  1  1  6  0  0  0
  2  3  1  0  0  0  0
  2  5  1  0  0  0  0
  3  4  1  0  0  0  0
  3 17  1  0  0  0  0
  5  6  1  0  0  0  0
  7  6  1  6  0  0  0
  7  8  1  0  0  0  0
  7  9  1  0  0  0  0
 10  9  1  6  0  0  0
 10 11  1  0  0  0  0
 10 12  1  0  0  0  0
 11 16  1  0  0  0  0
 12 13  1  1  0  0  0
 12 14  1  0  0  0  0
 14 15  1  1  0  0  0
 14 16  1  0  0  0  0
 16 27  1  6  0  0  0
 18 19  2  0  0  0  0
 18 23  1  0  0  0  0
 19 20  1  0  0  0  0
 20 21  2  0  0  0  0
 21 22  1  0  0  0  0
 21 27  1  0  0  0  0
 22 23  2  0  0  0  0
 22 25  1  0  0  0  0
 23 24  1  0  0  0  0
 25 26  2  0  0  0  0
 26 27  1  0  0  0  0
M  END
>  <CHROM.1>
157.63073324,-171.73913773,-176.84007956,-73.85778398,-53.00792529,82.77345113
89.06737694,47.78384335,-29.73566818,-102.43451904,-1.04153258,0.37179681
-0.29947954

>  <Name>
ligand

>  <RI>
0

>  <Rbt.Current_Directory>
/home/itssahil/PROJECTS/Mol_Feturizer/New_Systems/rnas/4L81

>  <Rbt.Executable>
rbdock ($Id: //depot/dev/client3/rdock/2013.1/src/exe/rbdock.cxx#4 $)

>  <Rbt.Library>
libRbt.so (2013.1, Build901 2013/11/27)

>  <Rbt.Parameter_File>
/export/apps/rDock/src/rDock_2013.1_src/data/scripts/dock_solv.prm

>  <Rbt.Receptor>
prm/pocket_docking_8.prm

>  <SCORE>
-18.4208

>  <SCORE.INTER>
-16.8174

>  <SCORE.INTER.CONST>
1

>  <SCORE.INTER.POLAR>
0

>  <SCORE.INTER.ROT>
7

>  <SCORE.INTER.SOLV>
14.1515

>  <SCORE.INTER.VDW>
-24.1954

>  <SCORE.INTER.norm>
-0.622866

>  <SCORE.INTRA>
-1.60346

>  <SCORE.INTRA.DIHEDRAL>
-2.57064

>  <SCORE.INTRA.DIHEDRAL.0>
8.34559

>  <SCORE.INTRA.POLAR>
0

>  <SCORE.INTRA.POLAR.0>
0

>  <SCORE.INTRA.REPUL>
0

>  <SCORE.INTRA.REPUL.0>
0

>  <SCORE.INTRA.SOLV>
-1.18069

>  <SCORE.INTRA.SOLV.lig_0>
-48.829

>  <SCORE.INTRA.VDW>
0.2722

>  <SCORE.INTRA.VDW.0>
-1.77092

>  <SCORE.INTRA.norm>
-0.0593875

>  <SCORE.RESTR>
0

>  <SCORE.RESTR.CAVITY>
0

>  <SCORE.RESTR.norm>
0

>  <SCORE.SYSTEM>
0

>  <SCORE.SYSTEM.CONST>
0

>  <SCORE.SYSTEM.DIHEDRAL>
0

>  <SCORE.SYSTEM.SOLV>
0

>  <SCORE.SYSTEM.norm>
0

>  <SCORE.heavy>
27

>  <SCORE.norm>
-0.682253

>  <RMSD>
6.366

$$$$
ligand
 OpenBabel11021811503D
libRbt.so/2013.1/901 2013/11/27
 27 29  0  0  0  0  0  0  0  0999 V2000
   48.8038  -27.5081 -104.2648 N   0  0  0  0  0  0  0  0  0  0  0  0
   49.7642  -27.2306 -103.1908 C   0  0  2  0  0  0  0  0  0  0  0  0
   50.4534  -25.9092 -103.4583 C   0  0  0  0  0  0  0  0  0  0  0  0
   50.6892  -25.1417 -102.5374 O   0  0  0  0  0  0  0  0  0  0  0  0
   50.8270  -28.3335 -103.0928 C   0  0  0  0  0  0  0  0  0  0  0  0
   50.1758  -29.7063 -103.0026 C   0  0  0  0  0  0  0  0  0  0  0  0
   49.2971  -29.9900 -101.4181 S   0  0  2  0  0  0  0  0  0  0  0  0
   50.4902  -30.9363 -100.4177 C   0  0  0  0  0  0  0  0  0  0  0  0
   48.2903  -31.3464 -102.0140 C   0  0  0  0  0  0  0  0  0  0  0  0
   47.5049  -31.0180 -103.2558 C   0  0  1  0  0  0  0  0  0  0  0  0
   48.3651  -31.2241 -104.3892 O   0  0  0  0  0  0  0  0  0  0  0  0
   46.4948  -32.0931 -103.2950 C   0  0  1  0  0  0  0  0  0  0  0  0
   45.2702  -31.6205 -102.7360 O   0  0  0  0  0  0  0  0  0  0  0  0
   46.3293  -32.3273 -104.7646 C   0  0  1  0  0  0  0  0  0  0  0  0
   45.3351  -31.4333 -105.3064 O   0  0  0  0  0  0  0  0  0  0  0  0
   47.7166  -32.0272 -105.4074 C   0  0  2  0  0  0  0  0  0  0  0  0
   50.8077  -25.6157 -104.5867 O   0  0  0  0  0  0  0  0  0  0  0  0
   51.8359  -35.0213 -103.9025 N   0  0  0  0  0  0  0  0  0  0  0  0
   51.3517  -33.9125 -103.2910 C   0  0  0  0  0  0  0  0  0  0  0  0
   50.2643  -33.2628 -103.7564 N   0  0  0  0  0  0  0  0  0  0  0  0
   49.6750  -33.6464 -104.9006 C   0  0  0  0  0  0  0  0  0  0  0  0
   50.1830  -34.7977 -105.6070 C   0  0  0  0  0  0  0  0  0  0  0  0
   51.3004  -35.4882 -105.0502 C   0  0  0  0  0  0  0  0  0  0  0  0
   51.8305  -36.6023 -105.6685 N   0  0  0  0  0  0  0  0  0  0  0  0
   49.4299  -34.9579 -106.7016 N   0  0  0  0  0  0  0  0  0  0  0  0
   48.5289  -34.0218 -106.7347 C   0  0  0  0  0  0  0  0  0  0  0  0
   48.6250  -33.1865 -105.6462 N   0  0  0  0  0  0  0  0  0  0  0  0
  2  1  1  6  0  0  0
  2  3  1  0  0  0  0
  2  5  1  0  0  0  0
  3  4  1  0  0  0  0
  3 17  1  0  0  0  0
  5  6  1  0  0  0  0
  7  6  1  6  0  0  0
  7  8  1  0  0  0  0
  7  9  1  0  0  0  0
 10  9  1  1  0  0  0
 10 11  1  0  0  0  0
 10 12  1  0  0  0  0
 11 16  1  0  0  0  0
 12 13  1  6  0  0  0
 12 14  1  0  0  0  0
 14 15  1  6  0  0  0
 14 16  1  0  0  0  0
 16 27  1  1  0  0  0
 18 19  2  0  0  0  0
 18 23  1  0  0  0  0
 19 20  1  0  0  0  0
 20 21  2  0  0  0  0
 21 22  1  0  0  0  0
 21 27  1  0  0  0  0
 22 23  2  0  0  0  0
 22 25  1  0  0  0  0
 23 24  1  0  0  0  0
 25 26  2  0  0  0  0
 26 27  1  0  0  0  0
M  END
>  <CHROM.1>
140.53260526,-51.92942927,-69.10647105,-98.09132561,-53.93047450,84.13676635
14.93466725,49.21274441,-31.25017781,-103.85736457,1.55372858,-0.12133515
0.28665080

>  <Name>
ligand

>  <RI>
0

>  <Rbt.Current_Directory>
/home/itssahil/PROJECTS/Mol_Feturizer/New_Systems/rnas/4L81

>  <Rbt.Executable>
rbdock ($Id: //depot/dev/client3/rdock/2013.1/src/exe/rbdock.cxx#4 $)

>  <Rbt.Library>
libRbt.so (2013.1, Build901 2013/11/27)

>  <Rbt.Parameter_File>
/export/apps/rDock/src/rDock_2013.1_src/data/scripts/dock_solv.prm

>  <Rbt.Receptor>
prm/pocket_docking_7.prm

>  <SCORE>
-12.1779

>  <SCORE.INTER>
-11.9137

>  <SCORE.INTER.CONST>
1

>  <SCORE.INTER.POLAR>
0

>  <SCORE.INTER.ROT>
7

>  <SCORE.INTER.SOLV>
5.23868

>  <SCORE.INTER.VDW>
-17.9553

>  <SCORE.INTER.norm>
-0.441247

>  <SCORE.INTRA>
-0.266561

>  <SCORE.INTRA.DIHEDRAL>
-0.319577

>  <SCORE.INTRA.DIHEDRAL.0>
8.34559

>  <SCORE.INTRA.POLAR>
0

>  <SCORE.INTRA.POLAR.0>
0

>  <SCORE.INTRA.REPUL>
0

>  <SCORE.INTRA.REPUL.0>
0

>  <SCORE.INTRA.SOLV>
1.24756

>  <SCORE.INTRA.SOLV.lig_0>
-48.829

>  <SCORE.INTRA.VDW>
-0.730553

>  <SCORE.INTRA.VDW.0>
-1.77092

>  <SCORE.INTRA.norm>
-0.00987262

>  <SCORE.RESTR>
0.00229557

>  <SCORE.RESTR.CAVITY>
0.00229557

>  <SCORE.RESTR.norm>
8.50212e-05

>  <SCORE.SYSTEM>
0

>  <SCORE.SYSTEM.CONST>
0

>  <SCORE.SYSTEM.DIHEDRAL>
0

>  <SCORE.SYSTEM.SOLV>
0

>  <SCORE.SYSTEM.norm>
0

>  <SCORE.heavy>
27

>  <SCORE.norm>
-0.451034

>  <RMSD>
6.367

$$$$
ligand
 OpenBabel11021811503D
libRbt.so/2013.1/901 2013/11/27
 27 29  0  0  0  0  0  0  0  0999 V2000
   46.4177  -28.6713 -101.9845 N   0  0  0  0  0  0  0  0  0  0  0  0
   46.0243  -29.8896 -101.2678 C   0  0  2  0  0  0  0  0  0  0  0  0
   46.7262  -29.9360  -99.9270 C   0  0  0  0  0  0  0  0  0  0  0  0
   47.8852  -29.5624  -99.8268 O   0  0  0  0  0  0  0  0  0  0  0  0
   46.3914  -31.1495 -102.0636 C   0  0  0  0  0  0  0  0  0  0  0  0
   47.8773  -31.1674 -102.3936 C   0  0  0  0  0  0  0  0  0  0  0  0
   48.4116  -32.6977 -103.2516 S   0  0  2  0  0  0  0  0  0  0  0  0
   50.2279  -32.6680 -103.1120 C   0  0  0  0  0  0  0  0  0  0  0  0
   48.2452  -32.0391 -104.9091 C   0  0  0  0  0  0  0  0  0  0  0  0
   46.8506  -32.1457 -105.4662 C   0  0  1  0  0  0  0  0  0  0  0  0
   46.1345  -30.9560 -105.0937 O   0  0  0  0  0  0  0  0  0  0  0  0
   47.0753  -32.0612 -106.9222 C   0  0  1  0  0  0  0  0  0  0  0  0
   47.0955  -33.3739 -107.4808 O   0  0  0  0  0  0  0  0  0  0  0  0
   45.8608  -31.3235 -107.3942 C   0  0  1  0  0  0  0  0  0  0  0  0
   44.7839  -32.2465 -107.6581 O   0  0  0  0  0  0  0  0  0  0  0  0
   45.4619  -30.3636 -106.2333 C   0  0  2  0  0  0  0  0  0  0  0  0
   46.1321  -30.3142  -98.9325 O   0  0  0  0  0  0  0  0  0  0  0  0
   48.9953  -26.8254 -108.0206 N   0  0  0  0  0  0  0  0  0  0  0  0
   48.9897  -28.1655 -108.2257 C   0  0  0  0  0  0  0  0  0  0  0  0
   48.0035  -28.9527 -107.7475 N   0  0  0  0  0  0  0  0  0  0  0  0
   47.0344  -28.4409 -106.9714 C   0  0  0  0  0  0  0  0  0  0  0  0
   47.0242  -27.0250 -106.6929 C   0  0  0  0  0  0  0  0  0  0  0  0
   48.0549  -26.2208 -107.2642 C   0  0  0  0  0  0  0  0  0  0  0  0
   48.0997  -24.8587 -107.0467 N   0  0  0  0  0  0  0  0  0  0  0  0
   45.9713  -26.7815 -105.9037 N   0  0  0  0  0  0  0  0  0  0  0  0
   45.3516  -27.8999 -105.6698 C   0  0  0  0  0  0  0  0  0  0  0  0
   45.9561  -28.9578 -106.3078 N   0  0  0  0  0  0  0  0  0  0  0  0
  2  1  1  6  0  0  0
  2  3  1  0  0  0  0
  2  5  1  0  0  0  0
  3  4  1  0  0  0  0
  3 17  1  0  0  0  0
  5  6  1  0  0  0  0
  7  6  1  1  0  0  0
  7  8  1  0  0  0  0
  7  9  1  0  0  0  0
 10  9  1  1  0  0  0
 10 11  1  0  0  0  0
 10 12  1  0  0  0  0
 11 16  1  0  0  0  0
 12 13  1  6  0  0  0
 12 14  1  0  0  0  0
 14 15  1  1  0  0  0
 14 16  1  0  0  0  0
 16 27  1  6  0  0  0
 18 19  2  0  0  0  0
 18 23  1  0  0  0  0
 19 20  1  0  0  0  0
 20 21  2  0  0  0  0
 21 22  1  0  0  0  0
 21 27  1  0  0  0  0
 22 23  2  0  0  0  0
 22 25  1  0  0  0  0
 23 24  1  0  0  0  0
 25 26  2  0  0  0  0
 26 27  1  0  0  0  0
M  END
>  <CHROM.1>
-38.68147100,55.94972653,176.28642830,-165.00999684,-85.11622968,89.16032394
89.73071219,47.13679984,-30.02287039,-104.80892103,0.40732563,-1.56865740
0.84053267

>  <Name>
ligand

>  <RI>
0

>  <Rbt.Current_Directory>
/home/itssahil/PROJECTS/Mol_Feturizer/New_Systems/rnas/4L81

>  <Rbt.Executable>
rbdock ($Id: //depot/dev/client3/rdock/2013.1/src/exe/rbdock.cxx#4 $)

>  <Rbt.Library>
libRbt.so (2013.1, Build901 2013/11/27)

>  <Rbt.Parameter_File>
/export/apps/rDock/src/rDock_2013.1_src/data/scripts/dock_solv.prm

>  <Rbt.Receptor>
prm/pocket_docking_5.prm

>  <SCORE>
-14.1716

>  <SCORE.INTER>
-12.6412

>  <SCORE.INTER.CONST>
1

>  <SCORE.INTER.POLAR>
0

>  <SCORE.INTER.ROT>
7

>  <SCORE.INTER.SOLV>
9.04887

>  <SCORE.INTER.VDW>
-19.7105

>  <SCORE.INTER.norm>
-0.468194

>  <SCORE.INTRA>
-1.53037

>  <SCORE.INTRA.DIHEDRAL>
-0.0724094

>  <SCORE.INTRA.DIHEDRAL.0>
8.34559

>  <SCORE.INTRA.POLAR>
0

>  <SCORE.INTRA.POLAR.0>
0

>  <SCORE.INTRA.REPUL>
0

>  <SCORE.INTRA.REPUL.0>
0

>  <SCORE.INTRA.SOLV>
-0.0463562

>  <SCORE.INTRA.SOLV.lig_0>
-48.829

>  <SCORE.INTRA.VDW>
-1.47098

>  <SCORE.INTRA.VDW.0>
-1.77092

>  <SCORE.INTRA.norm>
-0.0566802

>  <SCORE.RESTR>
0

>  <SCORE.RESTR.CAVITY>
0

>  <SCORE.RESTR.norm>
0

>  <SCORE.SYSTEM>
0

>  <SCORE.SYSTEM.CONST>
0

>  <SCORE.SYSTEM.DIHEDRAL>
0

>  <SCORE.SYSTEM.SOLV>
0

>  <SCORE.SYSTEM.norm>
0

>  <SCORE.heavy>
27

>  <SCORE.norm>
-0.524875

>  <RMSD>
6.389

$$$$
ligand
 OpenBabel11021811503D
libRbt.so/2013.1/901 2013/11/27
 27 29  0  0  0  0  0  0  0  0999 V2000
   49.6233  -29.8745 -102.9779 N   0  0  0  0  0  0  0  0  0  0  0  0
   50.6705  -30.6006 -102.2507 C   0  0  2  0  0  0  0  0  0  0  0  0
   50.4865  -32.0898 -102.4533 C   0  0  0  0  0  0  0  0  0  0  0  0
   51.3563  -32.8705 -102.0974 O   0  0  0  0  0  0  0  0  0  0  0  0
   50.6218  -30.2949 -100.7475 C   0  0  0  0  0  0  0  0  0  0  0  0
   49.3066  -30.7643 -100.1420 C   0  0  0  0  0  0  0  0  0  0  0  0
   47.9088  -29.6231 -100.4695 S   0  0  2  0  0  0  0  0  0  0  0  0
   46.8237  -29.8306  -99.0207 C   0  0  0  0  0  0  0  0  0  0  0  0
   47.0597  -30.7070 -101.6154 C   0  0  0  0  0  0  0  0  0  0  0  0
   45.6159  -30.3423 -101.8376 C   0  0  1  0  0  0  0  0  0  0  0  0
   45.4813  -28.9262 -101.6291 O   0  0  0  0  0  0  0  0  0  0  0  0
   45.4423  -30.5715 -103.2850 C   0  0  1  0  0  0  0  0  0  0  0  0
   44.8583  -31.8552 -103.5002 O   0  0  0  0  0  0  0  0  0  0  0  0
   44.4715  -29.4976 -103.6678 C   0  0  1  0  0  0  0  0  0  0  0  0
   43.1165  -29.9547 -103.4772 O   0  0  0  0  0  0  0  0  0  0  0  0
   44.7625  -28.2961 -102.7192 C   0  0  2  0  0  0  0  0  0  0  0  0
   49.4576  -32.5233 -102.9416 O   0  0  0  0  0  0  0  0  0  0  0  0
   45.7821  -24.4331 -106.2171 N   0  0  0  0  0  0  0  0  0  0  0  0
   44.7033  -25.2533 -106.1810 C   0  0  0  0  0  0  0  0  0  0  0  0
   44.5432  -26.1732 -105.2068 N   0  0  0  0  0  0  0  0  0  0  0  0
   45.4995  -26.3668 -104.2839 C   0  0  0  0  0  0  0  0  0  0  0  0
   46.6844  -25.5435 -104.3090 C   0  0  0  0  0  0  0  0  0  0  0  0
   46.7875  -24.5457 -105.3234 C   0  0  0  0  0  0  0  0  0  0  0  0
   47.8888  -23.7174 -105.3996 N   0  0  0  0  0  0  0  0  0  0  0  0
   47.4672  -25.9408 -103.2990 N   0  0  0  0  0  0  0  0  0  0  0  0
   46.8851  -26.9206 -102.6740 C   0  0  0  0  0  0  0  0  0  0  0  0
   45.6645  -27.2234 -103.2309 N   0  0  0  0  0  0  0  0  0  0  0  0
  2  1  1  6  0  0  0
  2  3  1  0  0  0  0
  2  5  1  0  0  0  0
  3  4  1  0  0  0  0
  3 17  1  0  0  0  0
  5  6  1  0  0  0  0
  7  6  1  1  0  0  0
  7  8  1  0  0  0  0
  7  9  1  0  0  0  0
 10  9  1  6  0  0  0
 10 11  1  0  0  0  0
 10 12  1  0  0  0  0
 11 16  1  0  0  0  0
 12 13  1  1  0  0  0
 12 14  1  0  0  0  0
 14 15  1  1  0  0  0
 14 16  1  0  0  0  0
 16 27  1  6  0  0  0
 18 19  2  0  0  0  0
 18 23  1  0  0  0  0
 19 20  1  0  0  0  0
 20 21  2  0  0  0  0
 21 22  1  0  0  0  0
 21 27  1  0  0  0  0
 22 23  2  0  0  0  0
 22 25  1  0  0  0  0
 23 24  1  0  0  0  0
 25 26  2  0  0  0  0
 26 27  1  0  0  0  0
M  END
>  <CHROM.1>
169.42190962,62.90351559,-78.74683269,-149.84943387,162.35209450,28.19437133
177.02672737,47.05211820,-28.84870110,-102.82989364,-1.06427717,-0.11016082
-0.48281332

>  <Name>
ligand

>  <RI>
0

>  <Rbt.Current_Directory>
/home/itssahil/PROJECTS/Mol_Feturizer/New_Systems/rnas/4L81

>  <Rbt.Executable>
rbdock ($Id: //depot/dev/client3/rdock/2013.1/src/exe/rbdock.cxx#4 $)

>  <Rbt.Library>
libRbt.so (2013.1, Build901 2013/11/27)

>  <Rbt.Parameter_File>
/export/apps/rDock/src/rDock_2013.1_src/data/scripts/dock_solv.prm

>  <Rbt.Receptor>
prm/pocket_docking_4.prm

>  <SCORE>
-13.088

>  <SCORE.INTER>
-15.582

>  <SCORE.INTER.CONST>
1

>  <SCORE.INTER.POLAR>
0

>  <SCORE.INTER.ROT>
7

>  <SCORE.INTER.SOLV>
8.52742

>  <SCORE.INTER.VDW>
-21.4971

>  <SCORE.INTER.norm>
-0.577111

>  <SCORE.INTRA>
2.49399

>  <SCORE.INTRA.DIHEDRAL>
2.26071

>  <SCORE.INTRA.DIHEDRAL.0>
8.34559

>  <SCORE.INTRA.POLAR>
0

>  <SCORE.INTRA.POLAR.0>
0

>  <SCORE.INTRA.REPUL>
0

>  <SCORE.INTRA.REPUL.0>
0

>  <SCORE.INTRA.SOLV>
2.29549

>  <SCORE.INTRA.SOLV.lig_0>
-48.829

>  <SCORE.INTRA.VDW>
0.215887

>  <SCORE.INTRA.VDW.0>
-1.77092

>  <SCORE.INTRA.norm>
0.0923699

>  <SCORE.RESTR>
0

>  <SCORE.RESTR.CAVITY>
0

>  <SCORE.RESTR.norm>
0

>  <SCORE.SYSTEM>
0

>  <SCORE.SYSTEM.CONST>
0

>  <SCORE.SYSTEM.DIHEDRAL>
0

>  <SCORE.SYSTEM.SOLV>
0

>  <SCORE.SYSTEM.norm>
0

>  <SCORE.heavy>
27

>  <SCORE.norm>
-0.484741

>  <RMSD>
6.397

$$$$
ligand
 OpenBabel11021811503D
libRbt.so/2013.1/901 2013/11/27
 27 29  0  0  0  0  0  0  0  0999 V2000
   47.5682  -33.2473 -107.6192 N   0  0  0  0  0  0  0  0  0  0  0  0
   48.4053  -32.3202 -106.8496 C   0  0  2  0  0  0  0  0  0  0  0  0
   49.8634  -32.5668 -107.1752 C   0  0  0  0  0  0  0  0  0  0  0  0
   50.3685  -32.0515 -108.1611 O   0  0  0  0  0  0  0  0  0  0  0  0
   48.1969  -32.5007 -105.3399 C   0  0  0  0  0  0  0  0  0  0  0  0
   46.8165  -32.0141 -104.9220 C   0  0  0  0  0  0  0  0  0  0  0  0
   46.3711  -32.4819 -103.2055 S   0  0  2  0  0  0  0  0  0  0  0  0
   44.6040  -32.0566 -103.0790 C   0  0  0  0  0  0  0  0  0  0  0  0
   47.0684  -31.0216 -102.4372 C   0  0  0  0  0  0  0  0  0  0  0  0
   48.5529  -31.1108 -102.2024 C   0  0  1  0  0  0  0  0  0  0  0  0
   49.2161  -30.6955 -103.4084 O   0  0  0  0  0  0  0  0  0  0  0  0
   48.7885  -30.0474 -101.2067 C   0  0  1  0  0  0  0  0  0  0  0  0
   48.8323  -30.6165  -99.8991 O   0  0  0  0  0  0  0  0  0  0  0  0
   50.1446  -29.5412 -101.5896 C   0  0  1  0  0  0  0  0  0  0  0  0
   51.1722  -30.3174 -100.9392 O   0  0  0  0  0  0  0  0  0  0  0  0
   50.2487  -29.7153 -103.1345 C   0  0  2  0  0  0  0  0  0  0  0  0
   50.5520  -33.2528 -106.4402 O   0  0  0  0  0  0  0  0  0  0  0  0
   50.1721  -24.4534 -103.8448 N   0  0  0  0  0  0  0  0  0  0  0  0
   50.5976  -25.1350 -102.7529 C   0  0  0  0  0  0  0  0  0  0  0  0
   50.6035  -26.4839 -102.7158 N   0  0  0  0  0  0  0  0  0  0  0  0
   50.1008  -27.1991 -103.7353 C   0  0  0  0  0  0  0  0  0  0  0  0
   49.5987  -26.5131 -104.9015 C   0  0  0  0  0  0  0  0  0  0  0  0
   49.6625  -25.0880 -104.9216 C   0  0  0  0  0  0  0  0  0  0  0  0
   49.2091  -24.3692 -106.0091 N   0  0  0  0  0  0  0  0  0  0  0  0
   49.1571  -27.4459 -105.7533 N   0  0  0  0  0  0  0  0  0  0  0  0
   49.3312  -28.6192 -105.2218 C   0  0  0  0  0  0  0  0  0  0  0  0
   49.9164  -28.5318 -103.9802 N   0  0  0  0  0  0  0  0  0  0  0  0
  2  1  1  6  0  0  0
  2  3  1  0  0  0  0
  2  5  1  0  0  0  0
  3  4  1  0  0  0  0
  3 17  1  0  0  0  0
  5  6  1  0  0  0  0
  7  6  1  6  0  0  0
  7  8  1  0  0  0  0
  7  9  1  0  0  0  0
 10  9  1  6  0  0  0
 10 11  1  0  0  0  0
 10 12  1  0  0  0  0
 11 16  1  0  0  0  0
 12 13  1  1  0  0  0
 12 14  1  0  0  0  0
 14 15  1  1  0  0  0
 14 16  1  0  0  0  0
 16 27  1  6  0  0  0
 18 19  2  0  0  0  0
 18 23  1  0  0  0  0
 19 20  1  0  0  0  0
 20 21  2  0  0  0  0
 21 22  1  0  0  0  0
 21 27  1  0  0  0  0
 22 23  2  0  0  0  0
 22 25  1  0  0  0  0
 23 24  1  0  0  0  0
 25 26  2  0  0  0  0
 26 27  1  0  0  0  0
M  END
>  <CHROM.1>
83.75183719,-69.77418437,169.13707827,-170.04471802,-82.54364044,85.50560139
146.40587998,48.93962465,-29.84455460,-104.06722511,-2.55858009,1.17764194
1.13884875

>  <Name>
ligand

>  <RI>
0

>  <Rbt.Current_Directory>
/home/itssahil/PROJECTS/Mol_Feturizer/New_Systems/rnas/4L81

>  <Rbt.Executable>
rbdock ($Id: //depot/dev/client3/rdock/2013.1/src/exe/rbdock.cxx#4 $)

>  <Rbt.Library>
libRbt.so (2013.1, Build901 2013/11/27)

>  <Rbt.Parameter_File>
/export/apps/rDock/src/rDock_2013.1_src/data/scripts/dock_solv.prm

>  <Rbt.Receptor>
prm/pocket_docking_8.prm

>  <SCORE>
-10.9785

>  <SCORE.INTER>
-10.1498

>  <SCORE.INTER.CONST>
1

>  <SCORE.INTER.POLAR>
0

>  <SCORE.INTER.ROT>
7

>  <SCORE.INTER.SOLV>
9.40657

>  <SCORE.INTER.VDW>
-18.1687

>  <SCORE.INTER.norm>
-0.375919

>  <SCORE.INTRA>
-0.828778

>  <SCORE.INTRA.DIHEDRAL>
-0.575689

>  <SCORE.INTRA.DIHEDRAL.0>
8.34559

>  <SCORE.INTRA.POLAR>
0

>  <SCORE.INTRA.POLAR.0>
0

>  <SCORE.INTRA.REPUL>
0

>  <SCORE.INTRA.REPUL.0>
0

>  <SCORE.INTRA.SOLV>
-0.537868

>  <SCORE.INTRA.SOLV.lig_0>
-48.829

>  <SCORE.INTRA.VDW>
-0.272

>  <SCORE.INTRA.VDW.0>
-1.77092

>  <SCORE.INTRA.norm>
-0.0306955

>  <SCORE.RESTR>
0.000134363

>  <SCORE.RESTR.CAVITY>
0.000134363

>  <SCORE.RESTR.norm>
4.97642e-06

>  <SCORE.SYSTEM>
0

>  <SCORE.SYSTEM.CONST>
0

>  <SCORE.SYSTEM.DIHEDRAL>
0

>  <SCORE.SYSTEM.SOLV>
0

>  <SCORE.SYSTEM.norm>
0

>  <SCORE.heavy>
27

>  <SCORE.norm>
-0.406609

>  <RMSD>
6.399

$$$$
ligand
 OpenBabel11021811503D
libRbt.so/2013.1/901 2013/11/27
 27 29  0  0  0  0  0  0  0  0999 V2000
   51.0397  -30.9317 -100.5054 N   0  0  0  0  0  0  0  0  0  0  0  0
   50.1340  -31.6616 -101.3996 C   0  0  2  0  0  0  0  0  0  0  0  0
   50.8333  -31.9336 -102.7148 C   0  0  0  0  0  0  0  0  0  0  0  0
   50.5161  -32.9006 -103.3909 O   0  0  0  0  0  0  0  0  0  0  0  0
   48.8544  -30.8603 -101.6748 C   0  0  0  0  0  0  0  0  0  0  0  0
   48.2719  -30.3094 -100.3808 C   0  0  0  0  0  0  0  0  0  0  0  0
   46.9682  -29.0482 -100.6511 S   0  0  2  0  0  0  0  0  0  0  0  0
   46.2907  -28.7532  -98.9857 C   0  0  0  0  0  0  0  0  0  0  0  0
   45.7342  -30.1959 -101.2584 C   0  0  0  0  0  0  0  0  0  0  0  0
   44.8352  -29.6147 -102.3170 C   0  0  1  0  0  0  0  0  0  0  0  0
   44.9116  -28.1822 -102.2230 O   0  0  0  0  0  0  0  0  0  0  0  0
   45.5219  -29.9901 -103.5680 C   0  0  1  0  0  0  0  0  0  0  0  0
   44.9250  -31.1684 -104.1074 O   0  0  0  0  0  0  0  0  0  0  0  0
   45.2364  -28.8195 -104.4570 C   0  0  1  0  0  0  0  0  0  0  0  0
   43.9804  -29.0044 -105.1424 O   0  0  0  0  0  0  0  0  0  0  0  0
   45.1492  -27.5781 -103.5194 C   0  0  2  0  0  0  0  0  0  0  0  0
   51.6931  -31.1737 -103.1249 O   0  0  0  0  0  0  0  0  0  0  0  0
   50.4382  -27.2398 -103.1865 N   0  0  0  0  0  0  0  0  0  0  0  0
   49.6868  -28.3614 -103.3109 C   0  0  0  0  0  0  0  0  0  0  0  0
   48.3436  -28.3066 -103.4284 N   0  0  0  0  0  0  0  0  0  0  0  0
   47.6955  -27.1340 -103.3364 C   0  0  0  0  0  0  0  0  0  0  0  0
   48.4531  -25.9181 -103.1624 C   0  0  0  0  0  0  0  0  0  0  0  0
   49.8750  -26.0162 -103.0985 C   0  0  0  0  0  0  0  0  0  0  0  0
   50.6610  -24.8926 -102.9430 N   0  0  0  0  0  0  0  0  0  0  0  0
   47.5771  -24.9087 -103.0959 N   0  0  0  0  0  0  0  0  0  0  0  0
   46.3732  -25.3869 -103.2021 C   0  0  0  0  0  0  0  0  0  0  0  0
   46.3823  -26.7531 -103.3604 N   0  0  0  0  0  0  0  0  0  0  0  0
  2  1  1  1  0  0  0
  2  3  1  0  0  0  0
  2  5  1  0  0  0  0
  3  4  1  0  0  0  0
  3 17  1  0  0  0  0
  5  6  1  0  0  0  0
  7  6  1  1  0  0  0
  7  8  1  0  0  0  0
  7  9  1  0  0  0  0
 10  9  1  1  0  0  0
 10 11  1  0  0  0  0
 10 12  1  0  0  0  0
 11 16  1  0  0  0  0
 12 13  1  6  0  0  0
 12 14  1  0  0  0  0
 14 15  1  1  0  0  0
 14 16  1  0  0  0  0
 16 27  1  1  0  0  0
 18 19  2  0  0  0  0
 18 23  1  0  0  0  0
 19 20  1  0  0  0  0
 20 21  2  0  0  0  0
 21 22  1  0  0  0  0
 21 27  1  0  0  0  0
 22 23  2  0  0  0  0
 22 25  1  0  0  0  0
 23 24  1  0  0  0  0
 25 26  2  0  0  0  0
 26 27  1  0  0  0  0
M  END
>  <CHROM.1>
152.61063031,-47.19609813,167.34790078,171.94523549,-145.83270228,-19.61118180
78.45070945,47.72378823,-28.86654683,-102.55163908,-0.63170146,-0.09636952
-0.19307824

>  <Name>
ligand

>  <RI>
0

>  <Rbt.Current_Directory>
/home/itssahil/PROJECTS/Mol_Feturizer/New_Systems/rnas/4L81

>  <Rbt.Executable>
rbdock ($Id: //depot/dev/client3/rdock/2013.1/src/exe/rbdock.cxx#4 $)

>  <Rbt.Library>
libRbt.so (2013.1, Build901 2013/11/27)

>  <Rbt.Parameter_File>
/export/apps/rDock/src/rDock_2013.1_src/data/scripts/dock_solv.prm

>  <Rbt.Receptor>
prm/pocket_docking_2.prm

>  <SCORE>
-6.89315

>  <SCORE.INTER>
-8.11512

>  <SCORE.INTER.CONST>
1

>  <SCORE.INTER.POLAR>
0

>  <SCORE.INTER.ROT>
7

>  <SCORE.INTER.SOLV>
19.6773

>  <SCORE.INTER.VDW>
-20.2358

>  <SCORE.INTER.norm>
-0.30056

>  <SCORE.INTRA>
-0.885545

>  <SCORE.INTRA.DIHEDRAL>
3.3832

>  <SCORE.INTRA.DIHEDRAL.0>
8.34559

>  <SCORE.INTRA.POLAR>
0

>  <SCORE.INTRA.POLAR.0>
0

>  <SCORE.INTRA.REPUL>
0

>  <SCORE.INTRA.REPUL.0>
0

>  <SCORE.INTRA.SOLV>
-0.130401

>  <SCORE.INTRA.SOLV.lig_0>
-48.829

>  <SCORE.INTRA.VDW>
-2.51195

>  <SCORE.INTRA.VDW.0>
-1.77092

>  <SCORE.INTRA.norm>
-0.0327979

>  <SCORE.RESTR>
2.10751

>  <SCORE.RESTR.CAVITY>
2.10751

>  <SCORE.RESTR.norm>
0.078056

>  <SCORE.SYSTEM>
0

>  <SCORE.SYSTEM.CONST>
0

>  <SCORE.SYSTEM.DIHEDRAL>
0

>  <SCORE.SYSTEM.SOLV>
0

>  <SCORE.SYSTEM.norm>
0

>  <SCORE.heavy>
27

>  <SCORE.norm>
-0.255302

>  <RMSD>
6.424

$$$$
ligand
 OpenBabel11021811503D
libRbt.so/2013.1/901 2013/11/27
 27 29  0  0  0  0  0  0  0  0999 V2000
   48.6061  -23.8196 -111.4563 N   0  0  0  0  0  0  0  0  0  0  0  0
   48.9076  -25.0340 -110.6901 C   0  0  2  0  0  0  0  0  0  0  0  0
   48.0565  -26.1777 -111.2004 C   0  0  0  0  0  0  0  0  0  0  0  0
   47.4750  -26.0810 -112.2705 O   0  0  0  0  0  0  0  0  0  0  0  0
   48.6263  -24.8355 -109.1944 C   0  0  0  0  0  0  0  0  0  0  0  0
   47.3905  -23.9717 -108.9860 C   0  0  0  0  0  0  0  0  0  0  0  0
   46.9775  -23.7105 -107.2184 S   0  0  2  0  0  0  0  0  0  0  0  0
   46.2245  -22.0517 -107.1839 C   0  0  0  0  0  0  0  0  0  0  0  0
   48.6394  -23.2764 -106.7102 C   0  0  0  0  0  0  0  0  0  0  0  0
   48.7151  -22.6836 -105.3283 C   0  0  1  0  0  0  0  0  0  0  0  0
   47.6011  -23.1861 -104.5710 O   0  0  0  0  0  0  0  0  0  0  0  0
   49.9236  -23.3189 -104.7682 C   0  0  1  0  0  0  0  0  0  0  0  0
   51.0354  -22.4350 -104.9022 O   0  0  0  0  0  0  0  0  0  0  0  0
   49.5659  -23.4750 -103.3226 C   0  0  1  0  0  0  0  0  0  0  0  0
   49.9073  -22.2804 -102.5893 O   0  0  0  0  0  0  0  0  0  0  0  0
   48.0242  -23.6978 -103.2821 C   0  0  2  0  0  0  0  0  0  0  0  0
   47.9713  -27.2143 -110.5654 O   0  0  0  0  0  0  0  0  0  0  0  0
   44.6365  -27.4535 -104.8995 N   0  0  0  0  0  0  0  0  0  0  0  0
   44.6563  -26.1465 -105.2589 C   0  0  0  0  0  0  0  0  0  0  0  0
   45.6036  -25.2996 -104.8045 N   0  0  0  0  0  0  0  0  0  0  0  0
   46.5126  -25.7082 -103.9044 C   0  0  0  0  0  0  0  0  0  0  0  0
   46.5031  -27.0819 -103.4623 C   0  0  0  0  0  0  0  0  0  0  0  0
   45.5184  -27.9569 -104.0102 C   0  0  0  0  0  0  0  0  0  0  0  0
   45.4586  -29.2848 -103.6388 N   0  0  0  0  0  0  0  0  0  0  0  0
   47.4945  -27.2217 -102.5744 N   0  0  0  0  0  0  0  0  0  0  0  0
   48.0942  -26.0779 -102.4278 C   0  0  0  0  0  0  0  0  0  0  0  0
   47.5381  -25.1074 -103.2280 N   0  0  0  0  0  0  0  0  0  0  0  0
  2  1  1  6  0  0  0
  2  3  1  0  0  0  0
  2  5  1  0  0  0  0
  3  4  1  0  0  0  0
  3 17  1  0  0  0  0
  5  6  1  0  0  0  0
  7  6  1  6  0  0  0
  7  8  1  0  0  0  0
  7  9  1  0  0  0  0
 10  9  1  6  0  0  0
 10 11  1  0  0  0  0
 10 12  1  0  0  0  0
 11 16  1  0  0  0  0
 12 13  1  1  0  0  0
 12 14  1  0  0  0  0
 14 15  1  1  0  0  0
 14 16  1  0  0  0  0
 16 27  1  6  0  0  0
 18 19  2  0  0  0  0
 18 23  1  0  0  0  0
 19 20  1  0  0  0  0
 20 21  2  0  0  0  0
 21 22  1  0  0  0  0
 21 27  1  0  0  0  0
 22 23  2  0  0  0  0
 22 25  1  0  0  0  0
 23 24  1  0  0  0  0
 25 26  2  0  0  0  0
 26 27  1  0  0  0  0
M  END
>  <CHROM.1>
14.58336715,37.06792896,179.17067594,148.43418925,167.56665631,26.80175493
-23.54176535,47.62882726,-24.86864785,-106.13683652,-1.45158865,0.94439110
1.51135124

>  <Name>
ligand

>  <RI>
0

>  <Rbt.Current_Directory>
/home/itssahil/PROJECTS/Mol_Feturizer/New_Systems/rnas/4L81

>  <Rbt.Executable>
rbdock ($Id: //depot/dev/client3/rdock/2013.1/src/exe/rbdock.cxx#4 $)

>  <Rbt.Library>
libRbt.so (2013.1, Build901 2013/11/27)

>  <Rbt.Parameter_File>
/export/apps/rDock/src/rDock_2013.1_src/data/scripts/dock_solv.prm

>  <Rbt.Receptor>
prm/pocket_docking_8.prm

>  <SCORE>
-10.6052

>  <SCORE.INTER>
-12.7728

>  <SCORE.INTER.CONST>
1

>  <SCORE.INTER.POLAR>
0

>  <SCORE.INTER.ROT>
7

>  <SCORE.INTER.SOLV>
8.4285

>  <SCORE.INTER.VDW>
-19.5914

>  <SCORE.INTER.norm>
-0.473068

>  <SCORE.INTRA>
2.16759

>  <SCORE.INTRA.DIHEDRAL>
0.942046

>  <SCORE.INTRA.DIHEDRAL.0>
8.34559

>  <SCORE.INTRA.POLAR>
0

>  <SCORE.INTRA.POLAR.0>
0

>  <SCORE.INTRA.REPUL>
0

>  <SCORE.INTRA.REPUL.0>
0

>  <SCORE.INTRA.SOLV>
-0.198362

>  <SCORE.INTRA.SOLV.lig_0>
-48.829

>  <SCORE.INTRA.VDW>
1.79575

>  <SCORE.INTRA.VDW.0>
-1.77092

>  <SCORE.INTRA.norm>
0.0802811

>  <SCORE.RESTR>
0

>  <SCORE.RESTR.CAVITY>
0

>  <SCORE.RESTR.norm>
0

>  <SCORE.SYSTEM>
0

>  <SCORE.SYSTEM.CONST>
0

>  <SCORE.SYSTEM.DIHEDRAL>
0

>  <SCORE.SYSTEM.SOLV>
0

>  <SCORE.SYSTEM.norm>
0

>  <SCORE.heavy>
27

>  <SCORE.norm>
-0.392787

>  <RMSD>
6.431

$$$$
ligand
 OpenBabel11021811503D
libRbt.so/2013.1/901 2013/11/27
 27 29  0  0  0  0  0  0  0  0999 V2000
   48.9914  -32.6249 -102.8936 N   0  0  0  0  0  0  0  0  0  0  0  0
   49.5517  -31.3045 -102.5846 C   0  0  2  0  0  0  0  0  0  0  0  0
   51.0306  -31.4398 -102.2891 C   0  0  0  0  0  0  0  0  0  0  0  0
   51.8346  -30.6884 -102.8200 O   0  0  0  0  0  0  0  0  0  0  0  0
   48.8588  -30.6738 -101.3691 C   0  0  0  0  0  0  0  0  0  0  0  0
   47.3466  -30.6836 -101.5427 C   0  0  0  0  0  0  0  0  0  0  0  0
   46.5300  -29.1831 -100.8755 S   0  0  2  0  0  0  0  0  0  0  0  0
   46.6456  -29.3869  -99.0686 C   0  0  0  0  0  0  0  0  0  0  0  0
   44.8551  -29.7697 -101.1188 C   0  0  0  0  0  0  0  0  0  0  0  0
   44.2983  -29.4636 -102.4838 C   0  0  1  0  0  0  0  0  0  0  0  0
   44.4096  -28.0464 -102.6982 O   0  0  0  0  0  0  0  0  0  0  0  0
   45.2774  -30.1022 -103.3845 C   0  0  1  0  0  0  0  0  0  0  0  0
   44.7953  -31.3839 -103.7850 O   0  0  0  0  0  0  0  0  0  0  0  0
   45.2917  -29.1719 -104.5577 C   0  0  1  0  0  0  0  0  0  0  0  0
   44.2579  -29.5329 -105.4970 O   0  0  0  0  0  0  0  0  0  0  0  0
   45.0116  -27.7506 -103.9836 C   0  0  2  0  0  0  0  0  0  0  0  0
   51.4271  -32.2756 -101.4959 O   0  0  0  0  0  0  0  0  0  0  0  0
   50.2435  -27.2193 -103.2466 N   0  0  0  0  0  0  0  0  0  0  0  0
   49.5537  -28.3607 -103.4903 C   0  0  0  0  0  0  0  0  0  0  0  0
   48.2210  -28.3533 -103.7022 N   0  0  0  0  0  0  0  0  0  0  0  0
   47.5162  -27.2158 -103.5898 C   0  0  0  0  0  0  0  0  0  0  0  0
   48.2045  -25.9832 -103.2908 C   0  0  0  0  0  0  0  0  0  0  0  0
   49.6212  -26.0273 -103.1291 C   0  0  0  0  0  0  0  0  0  0  0  0
   50.3432  -24.8843 -102.8517 N   0  0  0  0  0  0  0  0  0  0  0  0
   47.2816  -25.0160 -103.2298 N   0  0  0  0  0  0  0  0  0  0  0  0
   46.1108  -25.5352 -103.4512 C   0  0  0  0  0  0  0  0  0  0  0  0
   46.1922  -26.8877 -103.6874 N   0  0  0  0  0  0  0  0  0  0  0  0
  2  1  1  1  0  0  0
  2  3  1  0  0  0  0
  2  5  1  0  0  0  0
  3  4  1  0  0  0  0
  3 17  1  0  0  0  0
  5  6  1  0  0  0  0
  7  6  1  6  0  0  0
  7  8  1  0  0  0  0
  7  9  1  0  0  0  0
 10  9  1  1  0  0  0
 10 11  1  0  0  0  0
 10 12  1  0  0  0  0
 11 16  1  0  0  0  0
 12 13  1  6  0  0  0
 12 14  1  0  0  0  0
 14 15  1  6  0  0  0
 14 16  1  0  0  0  0
 16 27  1  1  0  0  0
 18 19  2  0  0  0  0
 18 23  1  0  0  0  0
 19 20  1  0  0  0  0
 20 21  2  0  0  0  0
 21 22  1  0  0  0  0
 21 27  1  0  0  0  0
 22 23  2  0  0  0  0
 22 25  1  0  0  0  0
 23 24  1  0  0  0  0
 25 26  2  0  0  0  0
 26 27  1  0  0  0  0
M  END
>  <CHROM.1>
132.01941036,-51.76689061,-142.90920559,-72.31771801,-87.56577682,-55.10417495
99.05565825,47.47640180,-28.94145676,-102.71115106,0.51832156,0.09759522
2.90506168

>  <Name>
ligand

>  <RI>
0

>  <Rbt.Current_Directory>
/home/itssahil/PROJECTS/Mol_Feturizer/New_Systems/rnas/4L81

>  <Rbt.Executable>
rbdock ($Id: //depot/dev/client3/rdock/2013.1/src/exe/rbdock.cxx#4 $)

>  <Rbt.Library>
libRbt.so (2013.1, Build901 2013/11/27)

>  <Rbt.Parameter_File>
/export/apps/rDock/src/rDock_2013.1_src/data/scripts/dock_solv.prm

>  <Rbt.Receptor>
prm/pocket_docking_3.prm

>  <SCORE>
-10.7347

>  <SCORE.INTER>
-9.65377

>  <SCORE.INTER.CONST>
1

>  <SCORE.INTER.POLAR>
0

>  <SCORE.INTER.ROT>
7

>  <SCORE.INTER.SOLV>
17.3495

>  <SCORE.INTER.VDW>
-20.4857

>  <SCORE.INTER.norm>
-0.357547

>  <SCORE.INTRA>
-1.09667

>  <SCORE.INTRA.DIHEDRAL>
0.145409

>  <SCORE.INTRA.DIHEDRAL.0>
8.34559

>  <SCORE.INTRA.POLAR>
0

>  <SCORE.INTRA.POLAR.0>
0

>  <SCORE.INTRA.REPUL>
0

>  <SCORE.INTRA.REPUL.0>
0

>  <SCORE.INTRA.SOLV>
0.0373312

>  <SCORE.INTRA.SOLV.lig_0>
-48.829

>  <SCORE.INTRA.VDW>
-1.18804

>  <SCORE.INTRA.VDW.0>
-1.77092

>  <SCORE.INTRA.norm>
-0.0406174

>  <SCORE.RESTR>
0.0157264

>  <SCORE.RESTR.CAVITY>
0.0157264

>  <SCORE.RESTR.norm>
0.000582459

>  <SCORE.SYSTEM>
0

>  <SCORE.SYSTEM.CONST>
0

>  <SCORE.SYSTEM.DIHEDRAL>
0

>  <SCORE.SYSTEM.SOLV>
0

>  <SCORE.SYSTEM.norm>
0

>  <SCORE.heavy>
27

>  <SCORE.norm>
-0.397582

>  <RMSD>
6.432

$$$$
ligand
 OpenBabel11021811503D
libRbt.so/2013.1/901 2013/11/27
 27 29  0  0  0  0  0  0  0  0999 V2000
   48.7331  -26.2947 -104.3708 N   0  0  0  0  0  0  0  0  0  0  0  0
   48.9767  -27.6086 -104.9765 C   0  0  2  0  0  0  0  0  0  0  0  0
   47.7826  -28.5070 -104.7320 C   0  0  0  0  0  0  0  0  0  0  0  0
   46.9492  -28.2059 -103.8908 O   0  0  0  0  0  0  0  0  0  0  0  0
   50.2270  -28.2736 -104.3851 C   0  0  0  0  0  0  0  0  0  0  0  0
   50.1411  -28.3338 -102.8665 C   0  0  0  0  0  0  0  0  0  0  0  0
   49.0700  -29.6903 -102.2535 S   0  0  2  0  0  0  0  0  0  0  0  0
   49.1062  -29.4941 -100.4425 C   0  0  0  0  0  0  0  0  0  0  0  0
   50.3023  -30.9794 -102.4222 C   0  0  0  0  0  0  0  0  0  0  0  0
   50.2959  -31.6510 -103.7697 C   0  0  1  0  0  0  0  0  0  0  0  0
   51.5079  -32.4153 -103.8875 O   0  0  0  0  0  0  0  0  0  0  0  0
   49.1959  -32.6263 -103.6411 C   0  0  1  0  0  0  0  0  0  0  0  0
   48.0077  -32.0871 -104.2180 O   0  0  0  0  0  0  0  0  0  0  0  0
   49.6869  -33.7772 -104.4637 C   0  0  1  0  0  0  0  0  0  0  0  0
   49.3119  -33.6023 -105.8457 O   0  0  0  0  0  0  0  0  0  0  0  0
   51.2395  -33.7690 -104.3321 C   0  0  2  0  0  0  0  0  0  0  0  0
   47.6259  -29.5183 -105.3935 O   0  0  0  0  0  0  0  0  0  0  0  0
   52.9881  -34.5290  -99.3759 N   0  0  0  0  0  0  0  0  0  0  0  0
   52.4960  -33.3860  -99.9138 C   0  0  0  0  0  0  0  0  0  0  0  0
   52.0428  -33.3367 -101.1839 N   0  0  0  0  0  0  0  0  0  0  0  0
   52.1476  -34.4056 -101.9902 C   0  0  0  0  0  0  0  0  0  0  0  0
   52.7035  -35.6320 -101.4712 C   0  0  0  0  0  0  0  0  0  0  0  0
   53.1193  -35.6563 -100.1067 C   0  0  0  0  0  0  0  0  0  0  0  0
   53.6504  -36.7988  -99.5433 N   0  0  0  0  0  0  0  0  0  0  0  0
   52.6989  -36.5249 -102.4679 N   0  0  0  0  0  0  0  0  0  0  0  0
   52.2081  -35.9654 -103.5336 C   0  0  0  0  0  0  0  0  0  0  0  0
   51.8431  -34.6603 -103.2988 N   0  0  0  0  0  0  0  0  0  0  0  0
  2  1  1  1  0  0  0
  2  3  1  0  0  0  0
  2  5  1  0  0  0  0
  3  4  1  0  0  0  0
  3 17  1  0  0  0  0
  5  6  1  0  0  0  0
  7  6  1  6  0  0  0
  7  8  1  0  0  0  0
  7  9  1  0  0  0  0
 10  9  1  1  0  0  0
 10 11  1  0  0  0  0
 10 12  1  0  0  0  0
 11 16  1  0  0  0  0
 12 13  1  6  0  0  0
 12 14  1  0  0  0  0
 14 15  1  6  0  0  0
 14 16  1  0  0  0  0
 16 27  1  1  0  0  0
 18 19  2  0  0  0  0
 18 23  1  0  0  0  0
 19 20  1  0  0  0  0
 20 21  2  0  0  0  0
 21 22  1  0  0  0  0
 21 27  1  0  0  0  0
 22 23  2  0  0  0  0
 22 25  1  0  0  0  0
 23 24  1  0  0  0  0
 25 26  2  0  0  0  0
 26 27  1  0  0  0  0
M  END
>  <CHROM.1>
-15.27166258,53.69227602,78.76758215,-178.21545855,-89.58749813,166.36415154
22.55076574,50.37345601,-31.94103107,-102.93736593,-2.70064648,0.99910756
-2.45726808

>  <Name>
ligand

>  <RI>
0

>  <Rbt.Current_Directory>
/home/itssahil/PROJECTS/Mol_Feturizer/New_Systems/rnas/4L81

>  <Rbt.Executable>
rbdock ($Id: //depot/dev/client3/rdock/2013.1/src/exe/rbdock.cxx#4 $)

>  <Rbt.Library>
libRbt.so (2013.1, Build901 2013/11/27)

>  <Rbt.Parameter_File>
/export/apps/rDock/src/rDock_2013.1_src/data/scripts/dock_solv.prm

>  <Rbt.Receptor>
prm/pocket_docking_7.prm

>  <SCORE>
-15.1981

>  <SCORE.INTER>
-12.6488

>  <SCORE.INTER.CONST>
1

>  <SCORE.INTER.POLAR>
0

>  <SCORE.INTER.ROT>
7

>  <SCORE.INTER.SOLV>
5.05951

>  <SCORE.INTER.VDW>
-18.3857

>  <SCORE.INTER.norm>
-0.468473

>  <SCORE.INTRA>
-2.54937

>  <SCORE.INTRA.DIHEDRAL>
-1.36441

>  <SCORE.INTRA.DIHEDRAL.0>
8.34559

>  <SCORE.INTRA.POLAR>
0

>  <SCORE.INTRA.POLAR.0>
0

>  <SCORE.INTRA.REPUL>
0

>  <SCORE.INTRA.REPUL.0>
0

>  <SCORE.INTRA.SOLV>
0.3877

>  <SCORE.INTRA.SOLV.lig_0>
-48.829

>  <SCORE.INTRA.VDW>
-2.06102

>  <SCORE.INTRA.VDW.0>
-1.77092

>  <SCORE.INTRA.norm>
-0.0944211

>  <SCORE.RESTR>
0

>  <SCORE.RESTR.CAVITY>
0

>  <SCORE.RESTR.norm>
0

>  <SCORE.SYSTEM>
0

>  <SCORE.SYSTEM.CONST>
0

>  <SCORE.SYSTEM.DIHEDRAL>
0

>  <SCORE.SYSTEM.SOLV>
0

>  <SCORE.SYSTEM.norm>
0

>  <SCORE.heavy>
27

>  <SCORE.norm>
-0.562894

>  <RMSD>
6.442

$$$$
ligand
 OpenBabel11021811503D
libRbt.so/2013.1/901 2013/11/27
 27 29  0  0  0  0  0  0  0  0999 V2000
   50.6172  -32.1389 -101.8840 N   0  0  0  0  0  0  0  0  0  0  0  0
   50.2015  -32.7028 -103.1732 C   0  0  2  0  0  0  0  0  0  0  0  0
   51.3334  -33.5237 -103.7542 C   0  0  0  0  0  0  0  0  0  0  0  0
   51.1320  -34.6685 -104.1305 O   0  0  0  0  0  0  0  0  0  0  0  0
   49.8263  -31.5988 -104.1712 C   0  0  0  0  0  0  0  0  0  0  0  0
   48.4454  -31.0374 -103.8635 C   0  0  0  0  0  0  0  0  0  0  0  0
   47.1049  -32.2785 -104.0255 S   0  0  2  0  0  0  0  0  0  0  0  0
   46.9068  -32.4784 -105.8256 C   0  0  0  0  0  0  0  0  0  0  0  0
   45.7634  -31.1315 -103.7197 C   0  0  0  0  0  0  0  0  0  0  0  0
   45.7124  -30.6224 -102.3037 C   0  0  1  0  0  0  0  0  0  0  0  0
   46.7327  -29.6201 -102.1581 O   0  0  0  0  0  0  0  0  0  0  0  0
   44.4188  -29.9135 -102.2600 C   0  0  1  0  0  0  0  0  0  0  0  0
   43.4251  -30.7646 -101.6912 O   0  0  0  0  0  0  0  0  0  0  0  0
   44.7066  -28.7732 -101.3332 C   0  0  1  0  0  0  0  0  0  0  0  0
   44.4853  -29.1710  -99.9642 O   0  0  0  0  0  0  0  0  0  0  0  0
   46.2087  -28.4160 -101.5436 C   0  0  2  0  0  0  0  0  0  0  0  0
   52.4442  -33.0393 -103.8818 O   0  0  0  0  0  0  0  0  0  0  0  0
   44.7858  -25.3139 -105.6120 N   0  0  0  0  0  0  0  0  0  0  0  0
   44.0787  -26.3299 -105.0591 C   0  0  0  0  0  0  0  0  0  0  0  0
   44.5392  -27.0177 -103.9933 N   0  0  0  0  0  0  0  0  0  0  0  0
   45.7631  -26.7733 -103.4974 C   0  0  0  0  0  0  0  0  0  0  0  0
   46.5677  -25.7276 -104.0818 C   0  0  0  0  0  0  0  0  0  0  0  0
   46.0196  -24.9881 -105.1718 C   0  0  0  0  0  0  0  0  0  0  0  0
   46.7307  -23.9684 -105.7710 N   0  0  0  0  0  0  0  0  0  0  0  0
   47.7269  -25.6962 -103.4138 N   0  0  0  0  0  0  0  0  0  0  0  0
   47.7101  -26.6163 -102.4959 C   0  0  0  0  0  0  0  0  0  0  0  0
   46.5218  -27.3088 -102.4936 N   0  0  0  0  0  0  0  0  0  0  0  0
  2  1  1  1  0  0  0
  2  3  1  0  0  0  0
  2  5  1  0  0  0  0
  3  4  1  0  0  0  0
  3 17  1  0  0  0  0
  5  6  1  0  0  0  0
  7  6  1  6  0  0  0
  7  8  1  0  0  0  0
  7  9  1  0  0  0  0
 10  9  1  6  0  0  0
 10 11  1  0  0  0  0
 10 12  1  0  0  0  0
 11 16  1  0  0  0  0
 12 13  1  1  0  0  0
 12 14  1  0  0  0  0
 14 15  1  1  0  0  0
 14 16  1  0  0  0  0
 16 27  1  6  0  0  0
 18 19  2  0  0  0  0
 18 23  1  0  0  0  0
 19 20  1  0  0  0  0
 20 21  2  0  0  0  0
 21 22  1  0  0  0  0
 21 27  1  0  0  0  0
 22 23  2  0  0  0  0
 22 25  1  0  0  0  0
 23 24  1  0  0  0  0
 25 26  2  0  0  0  0
 26 27  1  0  0  0  0
M  END
>  <CHROM.1>
128.71355622,-77.27149180,-62.87301999,-74.58776140,-68.96471285,77.31528014
93.18985467,47.06597865,-29.57057029,-103.38750767,-0.88747362,0.43341333
-0.34156405

>  <Name>
ligand

>  <RI>
0

>  <Rbt.Current_Directory>
/home/itssahil/PROJECTS/Mol_Feturizer/New_Systems/rnas/4L81

>  <Rbt.Executable>
rbdock ($Id: //depot/dev/client3/rdock/2013.1/src/exe/rbdock.cxx#4 $)

>  <Rbt.Library>
libRbt.so (2013.1, Build901 2013/11/27)

>  <Rbt.Parameter_File>
/export/apps/rDock/src/rDock_2013.1_src/data/scripts/dock_solv.prm

>  <Rbt.Receptor>
prm/pocket_docking_8.prm

>  <SCORE>
-15.4913

>  <SCORE.INTER>
-12.9516

>  <SCORE.INTER.CONST>
1

>  <SCORE.INTER.POLAR>
0

>  <SCORE.INTER.ROT>
7

>  <SCORE.INTER.SOLV>
12.8452

>  <SCORE.INTER.VDW>
-21.1828

>  <SCORE.INTER.norm>
-0.47969

>  <SCORE.INTRA>
-2.53962

>  <SCORE.INTRA.DIHEDRAL>
-2.87825

>  <SCORE.INTRA.DIHEDRAL.0>
8.34559

>  <SCORE.INTRA.POLAR>
0

>  <SCORE.INTRA.POLAR.0>
0

>  <SCORE.INTRA.REPUL>
0

>  <SCORE.INTRA.REPUL.0>
0

>  <SCORE.INTRA.SOLV>
-0.255096

>  <SCORE.INTRA.SOLV.lig_0>
-48.829

>  <SCORE.INTRA.VDW>
-0.972949

>  <SCORE.INTRA.VDW.0>
-1.77092

>  <SCORE.INTRA.norm>
-0.09406

>  <SCORE.RESTR>
0

>  <SCORE.RESTR.CAVITY>
0

>  <SCORE.RESTR.norm>
0

>  <SCORE.SYSTEM>
0

>  <SCORE.SYSTEM.CONST>
0

>  <SCORE.SYSTEM.DIHEDRAL>
0

>  <SCORE.SYSTEM.SOLV>
0

>  <SCORE.SYSTEM.norm>
0

>  <SCORE.heavy>
27

>  <SCORE.norm>
-0.57375

>  <RMSD>
6.456

$$$$
ligand
 OpenBabel11021811503D
libRbt.so/2013.1/901 2013/11/27
 27 29  0  0  0  0  0  0  0  0999 V2000
   52.4983  -32.9008 -102.9919 N   0  0  0  0  0  0  0  0  0  0  0  0
   51.2335  -32.2001 -102.7427 C   0  0  2  0  0  0  0  0  0  0  0  0
   51.0323  -32.0360 -101.2509 C   0  0  0  0  0  0  0  0  0  0  0  0
   50.3401  -31.1258 -100.8207 O   0  0  0  0  0  0  0  0  0  0  0  0
   50.0419  -32.9748 -103.3216 C   0  0  0  0  0  0  0  0  0  0  0  0
   48.7711  -32.1393 -103.2589 C   0  0  0  0  0  0  0  0  0  0  0  0
   47.3060  -32.9933 -103.9573 S   0  0  2  0  0  0  0  0  0  0  0  0
   47.5814  -32.9368 -105.7574 C   0  0  0  0  0  0  0  0  0  0  0  0
   46.1945  -31.5976 -103.7980 C   0  0  0  0  0  0  0  0  0  0  0  0
   45.8206  -31.2802 -102.3745 C   0  0  1  0  0  0  0  0  0  0  0  0
   46.9195  -30.5715 -101.7771 O   0  0  0  0  0  0  0  0  0  0  0  0
   44.7285  -30.3010 -102.5364 C   0  0  1  0  0  0  0  0  0  0  0  0
   43.4701  -30.9635 -102.4222 O   0  0  0  0  0  0  0  0  0  0  0  0
   44.9349  -29.3906 -101.3657 C   0  0  1  0  0  0  0  0  0  0  0  0
   44.2464  -29.9011 -100.2053 O   0  0  0  0  0  0  0  0  0  0  0  0
   46.4706  -29.3693 -101.1024 C   0  0  2  0  0  0  0  0  0  0  0  0
   51.5306  -32.8282 -100.4705 O   0  0  0  0  0  0  0  0  0  0  0  0
   46.6625  -25.0002 -104.1144 N   0  0  0  0  0  0  0  0  0  0  0  0
   45.5858  -25.7838 -103.8606 C   0  0  0  0  0  0  0  0  0  0  0  0
   45.6622  -26.8505 -103.0376 N   0  0  0  0  0  0  0  0  0  0  0  0
   46.8387  -27.2245 -102.5090 C   0  0  0  0  0  0  0  0  0  0  0  0
   48.0197  -26.4427 -102.7858 C   0  0  0  0  0  0  0  0  0  0  0  0
   47.8830  -25.2909 -103.6164 C   0  0  0  0  0  0  0  0  0  0  0  0
   48.9693  -24.4932 -103.9137 N   0  0  0  0  0  0  0  0  0  0  0  0
   49.0425  -27.0273 -102.1511 N   0  0  0  0  0  0  0  0  0  0  0  0
   48.6061  -28.0819 -101.5292 C   0  0  0  0  0  0  0  0  0  0  0  0
   47.2527  -28.2514 -101.7064 N   0  0  0  0  0  0  0  0  0  0  0  0
  2  1  1  1  0  0  0
  2  3  1  0  0  0  0
  2  5  1  0  0  0  0
  3  4  1  0  0  0  0
  3 17  1  0  0  0  0
  5  6  1  0  0  0  0
  7  6  1  1  0  0  0
  7  8  1  0  0  0  0
  7  9  1  0  0  0  0
 10  9  1  6  0  0  0
 10 11  1  0  0  0  0
 10 12  1  0  0  0  0
 11 16  1  0  0  0  0
 12 13  1  1  0  0  0
 12 14  1  0  0  0  0
 14 15  1  1  0  0  0
 14 16  1  0  0  0  0
 16 27  1  6  0  0  0
 18 19  2  0  0  0  0
 18 23  1  0  0  0  0
 19 20  1  0  0  0  0
 20 21  2  0  0  0  0
 21 22  1  0  0  0  0
 21 27  1  0  0  0  0
 22 23  2  0  0  0  0
 22 25  1  0  0  0  0
 23 24  1  0  0  0  0
 25 26  2  0  0  0  0
 26 27  1  0  0  0  0
M  END
>  <CHROM.1>
154.61946948,-170.81889806,179.17296701,-74.03182648,-70.80122088,78.29282900
111.42427137,47.66658483,-29.88462943,-102.61196248,-1.06519596,-0.03512189
-0.02070266

>  <Name>
ligand

>  <RI>
0

>  <Rbt.Current_Directory>
/home/itssahil/PROJECTS/Mol_Feturizer/New_Systems/rnas/4L81

>  <Rbt.Executable>
rbdock ($Id: //depot/dev/client3/rdock/2013.1/src/exe/rbdock.cxx#4 $)

>  <Rbt.Library>
libRbt.so (2013.1, Build901 2013/11/27)

>  <Rbt.Parameter_File>
/export/apps/rDock/src/rDock_2013.1_src/data/scripts/dock_solv.prm

>  <Rbt.Receptor>
prm/pocket_docking_6.prm

>  <SCORE>
-18.9211

>  <SCORE.INTER>
-15.6888

>  <SCORE.INTER.CONST>
1

>  <SCORE.INTER.POLAR>
0

>  <SCORE.INTER.ROT>
7

>  <SCORE.INTER.SOLV>
13.1346

>  <SCORE.INTER.VDW>
-23.1041

>  <SCORE.INTER.norm>
-0.581066

>  <SCORE.INTRA>
-3.23768

>  <SCORE.INTRA.DIHEDRAL>
-3.62928

>  <SCORE.INTRA.DIHEDRAL.0>
8.34559

>  <SCORE.INTRA.POLAR>
0

>  <SCORE.INTRA.POLAR.0>
0

>  <SCORE.INTRA.REPUL>
0

>  <SCORE.INTRA.REPUL.0>
0

>  <SCORE.INTRA.SOLV>
-1.22415

>  <SCORE.INTRA.SOLV.lig_0>
-48.829

>  <SCORE.INTRA.VDW>
-0.810968

>  <SCORE.INTRA.VDW.0>
-1.77092

>  <SCORE.INTRA.norm>
-0.119914

>  <SCORE.RESTR>
0.00533105

>  <SCORE.RESTR.CAVITY>
0.00533105

>  <SCORE.RESTR.norm>
0.000197446

>  <SCORE.SYSTEM>
0

>  <SCORE.SYSTEM.CONST>
0

>  <SCORE.SYSTEM.DIHEDRAL>
0

>  <SCORE.SYSTEM.SOLV>
0

>  <SCORE.SYSTEM.norm>
0

>  <SCORE.heavy>
27

>  <SCORE.norm>
-0.700783

>  <RMSD>
6.458

$$$$
ligand
 OpenBabel11021811503D
libRbt.so/2013.1/901 2013/11/27
 27 29  0  0  0  0  0  0  0  0999 V2000
   47.7650  -28.2099 -104.8027 N   0  0  0  0  0  0  0  0  0  0  0  0
   48.9974  -27.4398 -105.0054 C   0  0  2  0  0  0  0  0  0  0  0  0
   49.2091  -27.2059 -106.4864 C   0  0  0  0  0  0  0  0  0  0  0  0
   48.8138  -28.0264 -107.3008 O   0  0  0  0  0  0  0  0  0  0  0  0
   50.2178  -28.1794 -104.4407 C   0  0  0  0  0  0  0  0  0  0  0  0
   50.1731  -28.2150 -102.9196 C   0  0  0  0  0  0  0  0  0  0  0  0
   49.1049  -29.5499 -102.2562 S   0  0  2  0  0  0  0  0  0  0  0  0
   49.1635  -29.3033 -100.4519 C   0  0  0  0  0  0  0  0  0  0  0  0
   50.3308  -30.8477 -102.4034 C   0  0  0  0  0  0  0  0  0  0  0  0
   50.3738  -31.4888 -103.7650 C   0  0  1  0  0  0  0  0  0  0  0  0
   51.5786  -32.2690 -103.8475 O   0  0  0  0  0  0  0  0  0  0  0  0
   49.2552  -32.4495 -103.7070 C   0  0  1  0  0  0  0  0  0  0  0  0
   48.1014  -31.8792 -104.3226 O   0  0  0  0  0  0  0  0  0  0  0  0
   49.7651  -33.5891 -104.5337 C   0  0  1  0  0  0  0  0  0  0  0  0
   49.4537  -33.3776 -105.9264 O   0  0  0  0  0  0  0  0  0  0  0  0
   51.3104  -33.6080 -104.3344 C   0  0  2  0  0  0  0  0  0  0  0  0
   49.7446  -26.1841 -106.8790 O   0  0  0  0  0  0  0  0  0  0  0  0
   53.0153  -34.4533  -99.3769 N   0  0  0  0  0  0  0  0  0  0  0  0
   52.6001  -33.2831  -99.9210 C   0  0  0  0  0  0  0  0  0  0  0  0
   52.1483  -33.2113 -101.1906 N   0  0  0  0  0  0  0  0  0  0  0  0
   52.1790  -34.2898 -101.9903 C   0  0  0  0  0  0  0  0  0  0  0  0
   52.6522  -35.5476 -101.4645 C   0  0  0  0  0  0  0  0  0  0  0  0
   53.0686  -35.5914 -100.1007 C   0  0  0  0  0  0  0  0  0  0  0  0
   53.5229  -36.7635  -99.5311 N   0  0  0  0  0  0  0  0  0  0  0  0
   52.5851  -36.4444 -102.4556 N   0  0  0  0  0  0  0  0  0  0  0  0
   52.1307  -35.8597 -103.5238 C   0  0  0  0  0  0  0  0  0  0  0  0
   51.8549  -34.5315 -103.2966 N   0  0  0  0  0  0  0  0  0  0  0  0
  2  1  1  6  0  0  0
  2  3  1  0  0  0  0
  2  5  1  0  0  0  0
  3  4  1  0  0  0  0
  3 17  1  0  0  0  0
  5  6  1  0  0  0  0
  7  6  1  6  0  0  0
  7  8  1  0  0  0  0
  7  9  1  0  0  0  0
 10  9  1  1  0  0  0
 10 11  1  0  0  0  0
 10 12  1  0  0  0  0
 11 16  1  0  0  0  0
 12 13  1  6  0  0  0
 12 14  1  0  0  0  0
 14 15  1  6  0  0  0
 14 16  1  0  0  0  0
 16 27  1  1  0  0  0
 18 19  2  0  0  0  0
 18 23  1  0  0  0  0
 19 20  1  0  0  0  0
 20 21  2  0  0  0  0
 21 22  1  0  0  0  0
 21 27  1  0  0  0  0
 22 23  2  0  0  0  0
 22 25  1  0  0  0  0
 23 24  1  0  0  0  0
 25 26  2  0  0  0  0
 26 27  1  0  0  0  0
M  END
>  <CHROM.1>
-30.79290780,-69.52117393,81.96063587,-177.00614020,-85.35612992,166.68213813
18.22629222,50.57074052,-31.71156896,-103.22150715,-2.98242122,1.16522187
-2.24778316

>  <Name>
ligand

>  <RI>
0

>  <Rbt.Current_Directory>
/home/itssahil/PROJECTS/Mol_Feturizer/New_Systems/rnas/4L81

>  <Rbt.Executable>
rbdock ($Id: //depot/dev/client3/rdock/2013.1/src/exe/rbdock.cxx#4 $)

>  <Rbt.Library>
libRbt.so (2013.1, Build901 2013/11/27)

>  <Rbt.Parameter_File>
/export/apps/rDock/src/rDock_2013.1_src/data/scripts/dock_solv.prm

>  <Rbt.Receptor>
prm/pocket_docking_8.prm

>  <SCORE>
-16.2689

>  <SCORE.INTER>
-14.5333

>  <SCORE.INTER.CONST>
1

>  <SCORE.INTER.POLAR>
0

>  <SCORE.INTER.ROT>
7

>  <SCORE.INTER.SOLV>
5.44069

>  <SCORE.INTER.VDW>
-19.7691

>  <SCORE.INTER.norm>
-0.53827

>  <SCORE.INTRA>
-1.73565

>  <SCORE.INTRA.DIHEDRAL>
-1.11898

>  <SCORE.INTRA.DIHEDRAL.0>
8.34559

>  <SCORE.INTRA.POLAR>
0

>  <SCORE.INTRA.POLAR.0>
0

>  <SCORE.INTRA.REPUL>
0

>  <SCORE.INTRA.REPUL.0>
0

>  <SCORE.INTRA.SOLV>
1.56265

>  <SCORE.INTRA.SOLV.lig_0>
-48.829

>  <SCORE.INTRA.VDW>
-1.95748

>  <SCORE.INTRA.VDW.0>
-1.77092

>  <SCORE.INTRA.norm>
-0.0642832

>  <SCORE.RESTR>
0

>  <SCORE.RESTR.CAVITY>
0

>  <SCORE.RESTR.norm>
0

>  <SCORE.SYSTEM>
0

>  <SCORE.SYSTEM.CONST>
0

>  <SCORE.SYSTEM.DIHEDRAL>
0

>  <SCORE.SYSTEM.SOLV>
0

>  <SCORE.SYSTEM.norm>
0

>  <SCORE.heavy>
27

>  <SCORE.norm>
-0.602553

>  <RMSD>
6.486

$$$$
ligand
 OpenBabel11021811503D
libRbt.so/2013.1/901 2013/11/27
 27 29  0  0  0  0  0  0  0  0999 V2000
   48.7839  -34.7000 -108.3674 N   0  0  0  0  0  0  0  0  0  0  0  0
   48.9061  -33.2567 -108.1338 C   0  0  2  0  0  0  0  0  0  0  0  0
   50.2966  -32.7983 -108.5200 C   0  0  0  0  0  0  0  0  0  0  0  0
   51.2470  -33.5581 -108.4092 O   0  0  0  0  0  0  0  0  0  0  0  0
   48.6600  -32.9063 -106.6600 C   0  0  0  0  0  0  0  0  0  0  0  0
   49.5408  -33.7492 -105.7487 C   0  0  0  0  0  0  0  0  0  0  0  0
   49.4093  -33.2843 -103.9796 S   0  0  2  0  0  0  0  0  0  0  0  0
   47.6300  -32.9761 -103.7376 C   0  0  0  0  0  0  0  0  0  0  0  0
   49.9610  -31.5942 -104.1988 C   0  0  0  0  0  0  0  0  0  0  0  0
   50.3686  -30.9187 -102.9164 C   0  0  1  0  0  0  0  0  0  0  0  0
   51.1289  -29.7471 -103.2571 O   0  0  0  0  0  0  0  0  0  0  0  0
   49.0805  -30.4408 -102.3777 C   0  0  1  0  0  0  0  0  0  0  0  0
   48.5946  -31.3658 -101.4063 O   0  0  0  0  0  0  0  0  0  0  0  0
   49.4657  -29.1558 -101.7123 C   0  0  1  0  0  0  0  0  0  0  0  0
   49.8920  -29.4011 -100.3561 O   0  0  0  0  0  0  0  0  0  0  0  0
   50.6512  -28.5793 -102.5431 C   0  0  2  0  0  0  0  0  0  0  0  0
   50.4739  -31.6818 -108.9747 O   0  0  0  0  0  0  0  0  0  0  0  0
   48.4476  -27.3646 -107.2193 N   0  0  0  0  0  0  0  0  0  0  0  0
   48.5266  -28.5847 -106.6337 C   0  0  0  0  0  0  0  0  0  0  0  0
   49.0797  -28.7524 -105.4143 N   0  0  0  0  0  0  0  0  0  0  0  0
   49.6538  -27.7202 -104.7750 C   0  0  0  0  0  0  0  0  0  0  0  0
   49.6293  -26.4105 -105.3805 C   0  0  0  0  0  0  0  0  0  0  0  0
   48.9853  -26.2675 -106.6455 C   0  0  0  0  0  0  0  0  0  0  0  0
   48.9168  -25.0418 -107.2762 N   0  0  0  0  0  0  0  0  0  0  0  0
   50.2655  -25.5757 -104.5504 N   0  0  0  0  0  0  0  0  0  0  0  0
   50.6782  -26.2436 -103.5145 C   0  0  0  0  0  0  0  0  0  0  0  0
   50.3241  -27.5703 -103.5925 N   0  0  0  0  0  0  0  0  0  0  0  0
  2  1  1  1  0  0  0
  2  3  1  0  0  0  0
  2  5  1  0  0  0  0
  3  4  1  0  0  0  0
  3 17  1  0  0  0  0
  5  6  1  0  0  0  0
  7  6  1  6  0  0  0
  7  8  1  0  0  0  0
  7  9  1  0  0  0  0
 10  9  1  6  0  0  0
 10 11  1  0  0  0  0
 10 12  1  0  0  0  0
 11 16  1  0  0  0  0
 12 13  1  1  0  0  0
 12 14  1  0  0  0  0
 14 15  1  1  0  0  0
 14 16  1  0  0  0  0
 16 27  1  6  0  0  0
 18 19  2  0  0  0  0
 18 23  1  0  0  0  0
 19 20  1  0  0  0  0
 20 21  2  0  0  0  0
 21 22  1  0  0  0  0
 21 27  1  0  0  0  0
 22 23  2  0  0  0  0
 22 25  1  0  0  0  0
 23 24  1  0  0  0  0
 25 26  2  0  0  0  0
 26 27  1  0  0  0  0
M  END
>  <CHROM.1>
-30.74194299,52.43266676,174.95420787,40.80256149,-164.10252973,163.93828905
44.55870249,49.57929671,-30.23204755,-104.97354876,-3.13538708,1.53531430
1.99415074

>  <Name>
ligand

>  <RI>
0

>  <Rbt.Current_Directory>
/home/itssahil/PROJECTS/Mol_Feturizer/New_Systems/rnas/4L81

>  <Rbt.Executable>
rbdock ($Id: //depot/dev/client3/rdock/2013.1/src/exe/rbdock.cxx#4 $)

>  <Rbt.Library>
libRbt.so (2013.1, Build901 2013/11/27)

>  <Rbt.Parameter_File>
/export/apps/rDock/src/rDock_2013.1_src/data/scripts/dock_solv.prm

>  <Rbt.Receptor>
prm/pocket_docking_7.prm

>  <SCORE>
-10.5633

>  <SCORE.INTER>
-9.79483

>  <SCORE.INTER.CONST>
1

>  <SCORE.INTER.POLAR>
0

>  <SCORE.INTER.ROT>
7

>  <SCORE.INTER.SOLV>
11.0138

>  <SCORE.INTER.VDW>
-18.4678

>  <SCORE.INTER.norm>
-0.362772

>  <SCORE.INTRA>
-0.768447

>  <SCORE.INTRA.DIHEDRAL>
-2.16945

>  <SCORE.INTRA.DIHEDRAL.0>
8.34559

>  <SCORE.INTRA.POLAR>
0

>  <SCORE.INTRA.POLAR.0>
0

>  <SCORE.INTRA.REPUL>
0

>  <SCORE.INTRA.REPUL.0>
0

>  <SCORE.INTRA.SOLV>
-0.198583

>  <SCORE.INTRA.SOLV.lig_0>
-48.829

>  <SCORE.INTRA.VDW>
0.415569

>  <SCORE.INTRA.VDW.0>
-1.77092

>  <SCORE.INTRA.norm>
-0.028461

>  <SCORE.RESTR>
0

>  <SCORE.RESTR.CAVITY>
0

>  <SCORE.RESTR.norm>
0

>  <SCORE.SYSTEM>
0

>  <SCORE.SYSTEM.CONST>
0

>  <SCORE.SYSTEM.DIHEDRAL>
0

>  <SCORE.SYSTEM.SOLV>
0

>  <SCORE.SYSTEM.norm>
0

>  <SCORE.heavy>
27

>  <SCORE.norm>
-0.391233

>  <RMSD>
6.502

$$$$
ligand
 OpenBabel11021811503D
libRbt.so/2013.1/901 2013/11/27
 27 29  0  0  0  0  0  0  0  0999 V2000
   47.5323  -26.2258 -103.0495 N   0  0  0  0  0  0  0  0  0  0  0  0
   48.6304  -26.9033 -102.3511 C   0  0  2  0  0  0  0  0  0  0  0  0
   49.8401  -26.9729 -103.2592 C   0  0  0  0  0  0  0  0  0  0  0  0
   50.9417  -26.6498 -102.8411 O   0  0  0  0  0  0  0  0  0  0  0  0
   48.2364  -28.3284 -101.9399 C   0  0  0  0  0  0  0  0  0  0  0  0
   49.3598  -28.9970 -101.1604 C   0  0  0  0  0  0  0  0  0  0  0  0
   49.2350  -30.8265 -101.1328 S   0  0  2  0  0  0  0  0  0  0  0  0
   50.7852  -31.3605 -100.3383 C   0  0  0  0  0  0  0  0  0  0  0  0
   49.7006  -31.0620 -102.8464 C   0  0  0  0  0  0  0  0  0  0  0  0
   48.5668  -30.8583 -103.8158 C   0  0  1  0  0  0  0  0  0  0  0  0
   49.1147  -30.8719 -105.1449 O   0  0  0  0  0  0  0  0  0  0  0  0
   47.7879  -32.1032 -103.6705 C   0  0  1  0  0  0  0  0  0  0  0  0
   46.6942  -31.8831 -102.7812 O   0  0  0  0  0  0  0  0  0  0  0  0
   47.2790  -32.3298 -105.0604 C   0  0  1  0  0  0  0  0  0  0  0  0
   46.0353  -31.6266 -105.2604 O   0  0  0  0  0  0  0  0  0  0  0  0
   48.3689  -31.7587 -106.0164 C   0  0  2  0  0  0  0  0  0  0  0  0
   49.7308  -27.3822 -104.4018 O   0  0  0  0  0  0  0  0  0  0  0  0
   51.8711  -35.6774 -105.2571 N   0  0  0  0  0  0  0  0  0  0  0  0
   51.1407  -35.0268 -104.3184 C   0  0  0  0  0  0  0  0  0  0  0  0
   50.2481  -34.0707 -104.6503 N   0  0  0  0  0  0  0  0  0  0  0  0
   50.1180  -33.6683 -105.9249 C   0  0  0  0  0  0  0  0  0  0  0  0
   50.9061  -34.3053 -106.9523 C   0  0  0  0  0  0  0  0  0  0  0  0
   51.7972  -35.3497 -106.5645 C   0  0  0  0  0  0  0  0  0  0  0  0
   52.5732  -36.0079 -107.4968 N   0  0  0  0  0  0  0  0  0  0  0  0
   50.5925  -33.7213 -108.1148 N   0  0  0  0  0  0  0  0  0  0  0  0
   49.7069  -32.7952 -107.8966 C   0  0  0  0  0  0  0  0  0  0  0  0
   49.3690  -32.7202 -106.5655 N   0  0  0  0  0  0  0  0  0  0  0  0
  2  1  1  6  0  0  0
  2  3  1  0  0  0  0
  2  5  1  0  0  0  0
  3  4  1  0  0  0  0
  3 17  1  0  0  0  0
  5  6  1  0  0  0  0
  7  6  1  6  0  0  0
  7  8  1  0  0  0  0
  7  9  1  0  0  0  0
 10  9  1  1  0  0  0
 10 11  1  0  0  0  0
 10 12  1  0  0  0  0
 11 16  1  0  0  0  0
 12 13  1  1  0  0  0
 12 14  1  0  0  0  0
 14 15  1  1  0  0  0
 14 16  1  0  0  0  0
 16 27  1  1  0  0  0
 18 19  2  0  0  0  0
 18 23  1  0  0  0  0
 19 20  1  0  0  0  0
 20 21  2  0  0  0  0
 21 22  1  0  0  0  0
 21 27  1  0  0  0  0
 22 23  2  0  0  0  0
 22 25  1  0  0  0  0
 23 24  1  0  0  0  0
 25 26  2  0  0  0  0
 26 27  1  0  0  0  0
M  END
>  <CHROM.1>
132.24723495,-177.36897555,-160.10661300,173.01250593,-81.59109028,171.27646883
64.93940808,49.43759687,-31.34765019,-104.18943538,2.08402848,-1.06783964
1.02818062

>  <Name>
ligand

>  <RI>
0

>  <Rbt.Current_Directory>
/home/itssahil/PROJECTS/Mol_Feturizer/New_Systems/rnas/4L81

>  <Rbt.Executable>
rbdock ($Id: //depot/dev/client3/rdock/2013.1/src/exe/rbdock.cxx#4 $)

>  <Rbt.Library>
libRbt.so (2013.1, Build901 2013/11/27)

>  <Rbt.Parameter_File>
/export/apps/rDock/src/rDock_2013.1_src/data/scripts/dock_solv.prm

>  <Rbt.Receptor>
prm/pocket_docking_7.prm

>  <SCORE>
-14.1727

>  <SCORE.INTER>
-10.5002

>  <SCORE.INTER.CONST>
1

>  <SCORE.INTER.POLAR>
0

>  <SCORE.INTER.ROT>
7

>  <SCORE.INTER.SOLV>
7.77935

>  <SCORE.INTER.VDW>
-17.8599

>  <SCORE.INTER.norm>
-0.388895

>  <SCORE.INTRA>
-3.67252

>  <SCORE.INTRA.DIHEDRAL>
-2.88942

>  <SCORE.INTRA.DIHEDRAL.0>
8.34559

>  <SCORE.INTRA.POLAR>
0

>  <SCORE.INTRA.POLAR.0>
0

>  <SCORE.INTRA.REPUL>
0

>  <SCORE.INTRA.REPUL.0>
0

>  <SCORE.INTRA.SOLV>
-0.932817

>  <SCORE.INTRA.SOLV.lig_0>
-48.829

>  <SCORE.INTRA.VDW>
-1.7614

>  <SCORE.INTRA.VDW.0>
-1.77092

>  <SCORE.INTRA.norm>
-0.136019

>  <SCORE.RESTR>
0

>  <SCORE.RESTR.CAVITY>
0

>  <SCORE.RESTR.norm>
0

>  <SCORE.SYSTEM>
0

>  <SCORE.SYSTEM.CONST>
0

>  <SCORE.SYSTEM.DIHEDRAL>
0

>  <SCORE.SYSTEM.SOLV>
0

>  <SCORE.SYSTEM.norm>
0

>  <SCORE.heavy>
27

>  <SCORE.norm>
-0.524915

>  <RMSD>
6.544

$$$$
ligand
 OpenBabel11021811503D
libRbt.so/2013.1/901 2013/11/27
 27 29  0  0  0  0  0  0  0  0999 V2000
   51.4048  -33.8130 -104.5840 N   0  0  0  0  0  0  0  0  0  0  0  0
   51.1308  -32.4407 -104.1430 C   0  0  2  0  0  0  0  0  0  0  0  0
   51.6438  -32.2518 -102.7309 C   0  0  0  0  0  0  0  0  0  0  0  0
   52.2074  -33.1696 -102.1540 O   0  0  0  0  0  0  0  0  0  0  0  0
   49.6271  -32.1349 -104.1694 C   0  0  0  0  0  0  0  0  0  0  0  0
   48.8384  -33.2363 -103.4753 C   0  0  0  0  0  0  0  0  0  0  0  0
   47.0353  -32.9076 -103.4113 S   0  0  2  0  0  0  0  0  0  0  0  0
   46.6506  -32.2457 -105.0646 C   0  0  0  0  0  0  0  0  0  0  0  0
   47.1683  -31.3634 -102.5133 C   0  0  0  0  0  0  0  0  0  0  0  0
   45.9093  -30.9762 -101.7841 C   0  0  1  0  0  0  0  0  0  0  0  0
   46.0928  -29.6500 -101.2603 O   0  0  0  0  0  0  0  0  0  0  0  0
   44.9234  -30.8631 -102.8763 C   0  0  1  0  0  0  0  0  0  0  0  0
   44.1656  -32.0687 -102.9645 O   0  0  0  0  0  0  0  0  0  0  0  0
   44.0483  -29.7425 -102.4066 C   0  0  1  0  0  0  0  0  0  0  0  0
   42.9922  -30.2495 -101.5646 O   0  0  0  0  0  0  0  0  0  0  0  0
   44.9697  -28.7922 -101.5844 C   0  0  2  0  0  0  0  0  0  0  0  0
   51.5287  -31.1753 -102.1717 O   0  0  0  0  0  0  0  0  0  0  0  0
   49.1997  -25.9103 -102.9986 N   0  0  0  0  0  0  0  0  0  0  0  0
   49.1764  -27.0170 -102.2158 C   0  0  0  0  0  0  0  0  0  0  0  0
   48.0312  -27.6854 -101.9654 N   0  0  0  0  0  0  0  0  0  0  0  0
   46.8545  -27.2205 -102.4157 C   0  0  0  0  0  0  0  0  0  0  0  0
   46.8276  -26.0219 -103.2190 C   0  0  0  0  0  0  0  0  0  0  0  0
   48.0678  -25.3777 -103.5058 C   0  0  0  0  0  0  0  0  0  0  0  0
   48.1157  -24.2335 -104.2759 N   0  0  0  0  0  0  0  0  0  0  0  0
   45.5487  -25.7779 -103.5282 N   0  0  0  0  0  0  0  0  0  0  0  0
   44.8019  -26.6956 -102.9901 C   0  0  0  0  0  0  0  0  0  0  0  0
   45.5514  -27.6177 -102.2975 N   0  0  0  0  0  0  0  0  0  0  0  0
  2  1  1  1  0  0  0
  2  3  1  0  0  0  0
  2  5  1  0  0  0  0
  3  4  1  0  0  0  0
  3 17  1  0  0  0  0
  5  6  1  0  0  0  0
  7  6  1  6  0  0  0
  7  8  1  0  0  0  0
  7  9  1  0  0  0  0
 10  9  1  6  0  0  0
 10 11  1  0  0  0  0
 10 12  1  0  0  0  0
 11 16  1  0  0  0  0
 12 13  1  1  0  0  0
 12 14  1  0  0  0  0
 14 15  1  1  0  0  0
 14 16  1  0  0  0  0
 16 27  1  6  0  0  0
 18 19  2  0  0  0  0
 18 23  1  0  0  0  0
 19 20  1  0  0  0  0
 20 21  2  0  0  0  0
 21 22  1  0  0  0  0
 21 27  1  0  0  0  0
 22 23  2  0  0  0  0
 22 25  1  0  0  0  0
 23 24  1  0  0  0  0
 25 26  2  0  0  0  0
 26 27  1  0  0  0  0
M  END
>  <CHROM.1>
1.20129621,48.87382000,177.80120881,41.98039615,-158.12124168,-172.51594940
-12.66662728,47.47860671,-29.90873617,-102.91193375,-0.96438854,0.11569267
0.02205688

>  <Name>
ligand

>  <RI>
0

>  <Rbt.Current_Directory>
/home/itssahil/PROJECTS/Mol_Feturizer/New_Systems/rnas/4L81

>  <Rbt.Executable>
rbdock ($Id: //depot/dev/client3/rdock/2013.1/src/exe/rbdock.cxx#4 $)

>  <Rbt.Library>
libRbt.so (2013.1, Build901 2013/11/27)

>  <Rbt.Parameter_File>
/export/apps/rDock/src/rDock_2013.1_src/data/scripts/dock_solv.prm

>  <Rbt.Receptor>
prm/pocket_docking_4.prm

>  <SCORE>
-15.2279

>  <SCORE.INTER>
-16.3677

>  <SCORE.INTER.CONST>
1

>  <SCORE.INTER.POLAR>
0

>  <SCORE.INTER.ROT>
7

>  <SCORE.INTER.SOLV>
12.575

>  <SCORE.INTER.VDW>
-23.3701

>  <SCORE.INTER.norm>
-0.606212

>  <SCORE.INTRA>
1.13981

>  <SCORE.INTRA.DIHEDRAL>
-2.02685

>  <SCORE.INTRA.DIHEDRAL.0>
8.34559

>  <SCORE.INTRA.POLAR>
0

>  <SCORE.INTRA.POLAR.0>
0

>  <SCORE.INTRA.REPUL>
0

>  <SCORE.INTRA.REPUL.0>
0

>  <SCORE.INTRA.SOLV>
-0.129999

>  <SCORE.INTRA.SOLV.lig_0>
-48.829

>  <SCORE.INTRA.VDW>
2.21824

>  <SCORE.INTRA.VDW.0>
-1.77092

>  <SCORE.INTRA.norm>
0.0422154

>  <SCORE.RESTR>
0

>  <SCORE.RESTR.CAVITY>
0

>  <SCORE.RESTR.norm>
0

>  <SCORE.SYSTEM>
0

>  <SCORE.SYSTEM.CONST>
0

>  <SCORE.SYSTEM.DIHEDRAL>
0

>  <SCORE.SYSTEM.SOLV>
0

>  <SCORE.SYSTEM.norm>
0

>  <SCORE.heavy>
27

>  <SCORE.norm>
-0.563997

>  <RMSD>
6.592

$$$$
ligand
 OpenBabel11021811503D
libRbt.so/2013.1/901 2013/11/27
 27 29  0  0  0  0  0  0  0  0999 V2000
   48.0096  -28.0054 -104.4221 N   0  0  0  0  0  0  0  0  0  0  0  0
   49.0964  -27.1592 -103.9166 C   0  0  2  0  0  0  0  0  0  0  0  0
   50.0145  -26.7798 -105.0593 C   0  0  0  0  0  0  0  0  0  0  0  0
   49.9918  -27.4150 -106.1027 O   0  0  0  0  0  0  0  0  0  0  0  0
   49.9165  -27.8855 -102.8417 C   0  0  0  0  0  0  0  0  0  0  0  0
   49.0913  -28.0935 -101.5797 C   0  0  0  0  0  0  0  0  0  0  0  0
   48.1283  -29.6543 -101.5915 S   0  0  2  0  0  0  0  0  0  0  0  0
   47.3175  -29.6823  -99.9602 C   0  0  0  0  0  0  0  0  0  0  0  0
   49.5198  -30.7239 -101.2333 C   0  0  0  0  0  0  0  0  0  0  0  0
   50.3133  -31.1144 -102.4518 C   0  0  1  0  0  0  0  0  0  0  0  0
   51.6291  -31.4977 -102.0173 O   0  0  0  0  0  0  0  0  0  0  0  0
   49.6410  -32.3512 -102.8944 C   0  0  1  0  0  0  0  0  0  0  0  0
   48.7185  -32.0475 -103.9395 O   0  0  0  0  0  0  0  0  0  0  0  0
   50.7782  -33.1611 -103.4357 C   0  0  1  0  0  0  0  0  0  0  0  0
   51.0066  -32.8405 -104.8236 O   0  0  0  0  0  0  0  0  0  0  0  0
   52.0269  -32.7688 -102.5900 C   0  0  2  0  0  0  0  0  0  0  0  0
   50.7582  -25.8196 -104.9602 O   0  0  0  0  0  0  0  0  0  0  0  0
   53.3007  -37.5505 -100.6636 N   0  0  0  0  0  0  0  0  0  0  0  0
   53.0148  -37.2251 -101.9483 C   0  0  0  0  0  0  0  0  0  0  0  0
   52.7456  -35.9549 -102.3158 N   0  0  0  0  0  0  0  0  0  0  0  0
   52.6652  -34.9787 -101.3971 C   0  0  0  0  0  0  0  0  0  0  0  0
   52.9218  -35.2881 -100.0111 C   0  0  0  0  0  0  0  0  0  0  0  0
   53.2571  -36.6332  -99.6743 C   0  0  0  0  0  0  0  0  0  0  0  0
   53.5241  -36.9963  -98.3698 N   0  0  0  0  0  0  0  0  0  0  0  0
   52.7724  -34.1547  -99.3155 N   0  0  0  0  0  0  0  0  0  0  0  0
   52.4448  -33.1982 -100.1322 C   0  0  0  0  0  0  0  0  0  0  0  0
   52.3705  -33.6438 -101.4313 N   0  0  0  0  0  0  0  0  0  0  0  0
  2  1  1  6  0  0  0
  2  3  1  0  0  0  0
  2  5  1  0  0  0  0
  3  4  1  0  0  0  0
  3 17  1  0  0  0  0
  5  6  1  0  0  0  0
  7  6  1  1  0  0  0
  7  8  1  0  0  0  0
  7  9  1  0  0  0  0
 10  9  1  1  0  0  0
 10 11  1  0  0  0  0
 10 12  1  0  0  0  0
 11 16  1  0  0  0  0
 12 13  1  6  0  0  0
 12 14  1  0  0  0  0
 14 15  1  6  0  0  0
 14 16  1  0  0  0  0
 16 27  1  1  0  0  0
 18 19  2  0  0  0  0
 18 23  1  0  0  0  0
 19 20  1  0  0  0  0
 20 21  2  0  0  0  0
 21 22  1  0  0  0  0
 21 27  1  0  0  0  0
 22 23  2  0  0  0  0
 22 25  1  0  0  0  0
 23 24  1  0  0  0  0
 25 26  2  0  0  0  0
 26 27  1  0  0  0  0
M  END
>  <CHROM.1>
-17.82781483,-68.12446683,88.46098978,177.34936379,-84.28897386,157.86378842
172.12399067,50.73524735,-31.72939527,-102.22433882,-2.29814356,-0.93940110
2.14063305

>  <Name>
ligand

>  <RI>
0

>  <Rbt.Current_Directory>
/home/itssahil/PROJECTS/Mol_Feturizer/New_Systems/rnas/4L81

>  <Rbt.Executable>
rbdock ($Id: //depot/dev/client3/rdock/2013.1/src/exe/rbdock.cxx#4 $)

>  <Rbt.Library>
libRbt.so (2013.1, Build901 2013/11/27)

>  <Rbt.Parameter_File>
/export/apps/rDock/src/rDock_2013.1_src/data/scripts/dock_solv.prm

>  <Rbt.Receptor>
prm/pocket_docking_8.prm

>  <SCORE>
-17.345

>  <SCORE.INTER>
-16.9422

>  <SCORE.INTER.CONST>
1

>  <SCORE.INTER.POLAR>
0

>  <SCORE.INTER.ROT>
7

>  <SCORE.INTER.SOLV>
6.22055

>  <SCORE.INTER.VDW>
-21.635

>  <SCORE.INTER.norm>
-0.627489

>  <SCORE.INTRA>
-0.402778

>  <SCORE.INTRA.DIHEDRAL>
0.179025

>  <SCORE.INTRA.DIHEDRAL.0>
8.34559

>  <SCORE.INTRA.POLAR>
0

>  <SCORE.INTRA.POLAR.0>
0

>  <SCORE.INTRA.REPUL>
0

>  <SCORE.INTRA.REPUL.0>
0

>  <SCORE.INTRA.SOLV>
0.982746

>  <SCORE.INTRA.SOLV.lig_0>
-48.829

>  <SCORE.INTRA.VDW>
-0.983664

>  <SCORE.INTRA.VDW.0>
-1.77092

>  <SCORE.INTRA.norm>
-0.0149177

>  <SCORE.RESTR>
0

>  <SCORE.RESTR.CAVITY>
0

>  <SCORE.RESTR.norm>
0

>  <SCORE.SYSTEM>
0

>  <SCORE.SYSTEM.CONST>
0

>  <SCORE.SYSTEM.DIHEDRAL>
0

>  <SCORE.SYSTEM.SOLV>
0

>  <SCORE.SYSTEM.norm>
0

>  <SCORE.heavy>
27

>  <SCORE.norm>
-0.642407

>  <RMSD>
6.593

$$$$
ligand
 OpenBabel11021811503D
libRbt.so/2013.1/901 2013/11/27
 27 29  0  0  0  0  0  0  0  0999 V2000
   48.5718  -29.5612 -102.9545 N   0  0  0  0  0  0  0  0  0  0  0  0
   49.9535  -29.5355 -103.4474 C   0  0  2  0  0  0  0  0  0  0  0  0
   50.8528  -30.2597 -102.4679 C   0  0  0  0  0  0  0  0  0  0  0  0
   50.7543  -30.0454 -101.2691 O   0  0  0  0  0  0  0  0  0  0  0  0
   50.4603  -28.0966 -103.6155 C   0  0  0  0  0  0  0  0  0  0  0  0
   49.7180  -27.3893 -104.7404 C   0  0  0  0  0  0  0  0  0  0  0  0
   50.4143  -25.7417 -105.1457 S   0  0  2  0  0  0  0  0  0  0  0  0
   50.0825  -24.7463 -103.6562 C   0  0  0  0  0  0  0  0  0  0  0  0
   49.0333  -25.2088 -106.1545 C   0  0  0  0  0  0  0  0  0  0  0  0
   49.1360  -25.6335 -107.5953 C   0  0  1  0  0  0  0  0  0  0  0  0
   49.4771  -27.0299 -107.6204 O   0  0  0  0  0  0  0  0  0  0  0  0
   47.7400  -25.5343 -108.0632 C   0  0  1  0  0  0  0  0  0  0  0  0
   47.5476  -24.2914 -108.7368 O   0  0  0  0  0  0  0  0  0  0  0  0
   47.6457  -26.6651 -109.0402 C   0  0  1  0  0  0  0  0  0  0  0  0
   48.0694  -26.2335 -110.3499 O   0  0  0  0  0  0  0  0  0  0  0  0
   48.6069  -27.7719 -108.5117 C   0  0  2  0  0  0  0  0  0  0  0  0
   51.6576  -31.0848 -102.8634 O   0  0  0  0  0  0  0  0  0  0  0  0
   48.3222  -32.9019 -107.1701 N   0  0  0  0  0  0  0  0  0  0  0  0
   49.0963  -32.3393 -108.1304 C   0  0  0  0  0  0  0  0  0  0  0  0
   49.1060  -31.0070 -108.3443 N   0  0  0  0  0  0  0  0  0  0  0  0
   48.2756  -30.1985 -107.6657 C   0  0  0  0  0  0  0  0  0  0  0  0
   47.4040  -30.7603 -106.6621 C   0  0  0  0  0  0  0  0  0  0  0  0
   47.4659  -32.1665 -106.4298 C   0  0  0  0  0  0  0  0  0  0  0  0
   46.6675  -32.7680 -105.4783 N   0  0  0  0  0  0  0  0  0  0  0  0
   46.6877  -29.7538 -106.1476 N   0  0  0  0  0  0  0  0  0  0  0  0
   47.0281  -28.6478 -106.7397 C   0  0  0  0  0  0  0  0  0  0  0  0
   48.0089  -28.8574 -107.6808 N   0  0  0  0  0  0  0  0  0  0  0  0
  2  1  1  1  0  0  0
  2  3  1  0  0  0  0
  2  5  1  0  0  0  0
  3  4  1  0  0  0  0
  3 17  1  0  0  0  0
  5  6  1  0  0  0  0
  7  6  1  1  0  0  0
  7  8  1  0  0  0  0
  7  9  1  0  0  0  0
 10  9  1  1  0  0  0
 10 11  1  0  0  0  0
 10 12  1  0  0  0  0
 11 16  1  0  0  0  0
 12 13  1  6  0  0  0
 12 14  1  0  0  0  0
 14 15  1  6  0  0  0
 14 16  1  0  0  0  0
 16 27  1  1  0  0  0
 18 19  2  0  0  0  0
 18 23  1  0  0  0  0
 19 20  1  0  0  0  0
 20 21  2  0  0  0  0
 21 22  1  0  0  0  0
 21 27  1  0  0  0  0
 22 23  2  0  0  0  0
 22 25  1  0  0  0  0
 23 24  1  0  0  0  0
 25 26  2  0  0  0  0
 26 27  1  0  0  0  0
M  END
>  <CHROM.1>
-45.58149114,-67.55245676,-172.53978865,-66.39898503,-86.48192226,47.77435502
-106.07956699,48.91866064,-28.46278108,-106.09881363,-1.22773800,-1.09614463
-0.33913983

>  <Name>
ligand

>  <RI>
0

>  <Rbt.Current_Directory>
/home/itssahil/PROJECTS/Mol_Feturizer/New_Systems/rnas/4L81

>  <Rbt.Executable>
rbdock ($Id: //depot/dev/client3/rdock/2013.1/src/exe/rbdock.cxx#4 $)

>  <Rbt.Library>
libRbt.so (2013.1, Build901 2013/11/27)

>  <Rbt.Parameter_File>
/export/apps/rDock/src/rDock_2013.1_src/data/scripts/dock_solv.prm

>  <Rbt.Receptor>
prm/pocket_docking_6.prm

>  <SCORE>
-12.8575

>  <SCORE.INTER>
-9.5525

>  <SCORE.INTER.CONST>
1

>  <SCORE.INTER.POLAR>
0

>  <SCORE.INTER.ROT>
7

>  <SCORE.INTER.SOLV>
10.8726

>  <SCORE.INTER.VDW>
-18.2592

>  <SCORE.INTER.norm>
-0.353796

>  <SCORE.INTRA>
-3.33065

>  <SCORE.INTRA.DIHEDRAL>
-3.08916

>  <SCORE.INTRA.DIHEDRAL.0>
8.34559

>  <SCORE.INTRA.POLAR>
0

>  <SCORE.INTRA.POLAR.0>
0

>  <SCORE.INTRA.REPUL>
0

>  <SCORE.INTRA.REPUL.0>
0

>  <SCORE.INTRA.SOLV>
-0.402

>  <SCORE.INTRA.SOLV.lig_0>
-48.829

>  <SCORE.INTRA.VDW>
-1.58507

>  <SCORE.INTRA.VDW.0>
-1.77092

>  <SCORE.INTRA.norm>
-0.123357

>  <SCORE.RESTR>
0.0256232

>  <SCORE.RESTR.CAVITY>
0.0256232

>  <SCORE.RESTR.norm>
0.000949006

>  <SCORE.SYSTEM>
0

>  <SCORE.SYSTEM.CONST>
0

>  <SCORE.SYSTEM.DIHEDRAL>
0

>  <SCORE.SYSTEM.SOLV>
0

>  <SCORE.SYSTEM.norm>
0

>  <SCORE.heavy>
27

>  <SCORE.norm>
-0.476205

>  <RMSD>
6.598

$$$$
ligand
 OpenBabel11021811503D
libRbt.so/2013.1/901 2013/11/27
 27 29  0  0  0  0  0  0  0  0999 V2000
   47.3790  -25.6406 -108.1878 N   0  0  0  0  0  0  0  0  0  0  0  0
   48.3458  -26.0898 -109.1959 C   0  0  2  0  0  0  0  0  0  0  0  0
   48.1884  -25.2593 -110.4522 C   0  0  0  0  0  0  0  0  0  0  0  0
   47.0924  -25.1444 -110.9795 O   0  0  0  0  0  0  0  0  0  0  0  0
   48.1379  -27.5687 -109.5498 C   0  0  0  0  0  0  0  0  0  0  0  0
   48.7225  -28.4705 -108.4719 C   0  0  0  0  0  0  0  0  0  0  0  0
   47.5716  -28.7737 -107.0766 S   0  0  2  0  0  0  0  0  0  0  0  0
   48.0640  -27.5437 -105.8260 C   0  0  0  0  0  0  0  0  0  0  0  0
   48.4463  -30.1976 -106.4314 C   0  0  0  0  0  0  0  0  0  0  0  0
   48.3524  -31.4160 -107.3109 C   0  0  1  0  0  0  0  0  0  0  0  0
   49.5917  -32.1363 -107.2008 O   0  0  0  0  0  0  0  0  0  0  0  0
   47.3308  -32.2322 -106.6269 C   0  0  1  0  0  0  0  0  0  0  0  0
   46.0625  -32.0324 -107.2490 O   0  0  0  0  0  0  0  0  0  0  0  0
   47.8101  -33.6280 -106.8799 C   0  0  1  0  0  0  0  0  0  0  0  0
   47.2953  -34.1155 -108.1364 O   0  0  0  0  0  0  0  0  0  0  0  0
   49.3648  -33.5447 -106.9422 C   0  0  2  0  0  0  0  0  0  0  0  0
   49.1450  -24.6730 -110.9277 O   0  0  0  0  0  0  0  0  0  0  0  0
   51.6701  -31.9030 -102.4490 N   0  0  0  0  0  0  0  0  0  0  0  0
   51.0703  -31.1422 -103.3973 C   0  0  0  0  0  0  0  0  0  0  0  0
   50.4813  -31.6913 -104.4802 N   0  0  0  0  0  0  0  0  0  0  0  0
   50.5484  -33.0147 -104.6989 C   0  0  0  0  0  0  0  0  0  0  0  0
   51.2134  -33.8585 -103.7355 C   0  0  0  0  0  0  0  0  0  0  0  0
   51.7743  -33.2427 -102.5773 C   0  0  0  0  0  0  0  0  0  0  0  0
   52.4156  -33.9914 -101.6114 N   0  0  0  0  0  0  0  0  0  0  0  0
   51.1431  -35.1150 -104.1906 N   0  0  0  0  0  0  0  0  0  0  0  0
   50.5150  -35.1173 -105.3285 C   0  0  0  0  0  0  0  0  0  0  0  0
   50.1170  -33.8515 -105.6906 N   0  0  0  0  0  0  0  0  0  0  0  0
  2  1  1  1  0  0  0
  2  3  1  0  0  0  0
  2  5  1  0  0  0  0
  3  4  1  0  0  0  0
  3 17  1  0  0  0  0
  5  6  1  0  0  0  0
  7  6  1  6  0  0  0
  7  8  1  0  0  0  0
  7  9  1  0  0  0  0
 10  9  1  1  0  0  0
 10 11  1  0  0  0  0
 10 12  1  0  0  0  0
 11 16  1  0  0  0  0
 12 13  1  6  0  0  0
 12 14  1  0  0  0  0
 14 15  1  6  0  0  0
 14 16  1  0  0  0  0
 16 27  1  1  0  0  0
 18 19  2  0  0  0  0
 18 23  1  0  0  0  0
 19 20  1  0  0  0  0
 20 21  2  0  0  0  0
 21 22  1  0  0  0  0
 21 27  1  0  0  0  0
 22 23  2  0  0  0  0
 22 25  1  0  0  0  0
 23 24  1  0  0  0  0
 25 26  2  0  0  0  0
 26 27  1  0  0  0  0
M  END
>  <CHROM.1>
-52.92777742,-77.95966892,85.19934946,-96.08668985,-70.01392296,146.10616944
21.30507716,49.03771128,-30.61759870,-106.62388754,-2.04541842,0.87161178
2.89296865

>  <Name>
ligand

>  <RI>
0

>  <Rbt.Current_Directory>
/home/itssahil/PROJECTS/Mol_Feturizer/New_Systems/rnas/4L81

>  <Rbt.Executable>
rbdock ($Id: //depot/dev/client3/rdock/2013.1/src/exe/rbdock.cxx#4 $)

>  <Rbt.Library>
libRbt.so (2013.1, Build901 2013/11/27)

>  <Rbt.Parameter_File>
/export/apps/rDock/src/rDock_2013.1_src/data/scripts/dock_solv.prm

>  <Rbt.Receptor>
prm/pocket_docking_8.prm

>  <SCORE>
-10.8587

>  <SCORE.INTER>
-11.3941

>  <SCORE.INTER.CONST>
1

>  <SCORE.INTER.POLAR>
0

>  <SCORE.INTER.ROT>
7

>  <SCORE.INTER.SOLV>
14.4165

>  <SCORE.INTER.VDW>
-20.6682

>  <SCORE.INTER.norm>
-0.422003

>  <SCORE.INTRA>
0.535339

>  <SCORE.INTRA.DIHEDRAL>
2.91868

>  <SCORE.INTRA.DIHEDRAL.0>
8.34559

>  <SCORE.INTRA.POLAR>
0

>  <SCORE.INTRA.POLAR.0>
0

>  <SCORE.INTRA.REPUL>
0

>  <SCORE.INTRA.REPUL.0>
0

>  <SCORE.INTRA.SOLV>
1.53826

>  <SCORE.INTRA.SOLV.lig_0>
-48.829

>  <SCORE.INTRA.VDW>
-1.69313

>  <SCORE.INTRA.VDW.0>
-1.77092

>  <SCORE.INTRA.norm>
0.0198274

>  <SCORE.RESTR>
0

>  <SCORE.RESTR.CAVITY>
0

>  <SCORE.RESTR.norm>
0

>  <SCORE.SYSTEM>
0

>  <SCORE.SYSTEM.CONST>
0

>  <SCORE.SYSTEM.DIHEDRAL>
0

>  <SCORE.SYSTEM.SOLV>
0

>  <SCORE.SYSTEM.norm>
0

>  <SCORE.heavy>
27

>  <SCORE.norm>
-0.402175

>  <RMSD>
6.609

$$$$
ligand
 OpenBabel11021811503D
libRbt.so/2013.1/901 2013/11/27
 27 29  0  0  0  0  0  0  0  0999 V2000
   52.4938  -32.9036 -102.9958 N   0  0  0  0  0  0  0  0  0  0  0  0
   51.2985  -32.0985 -102.7202 C   0  0  2  0  0  0  0  0  0  0  0  0
   51.1780  -31.8675 -101.2286 C   0  0  0  0  0  0  0  0  0  0  0  0
   50.7356  -30.8106 -100.8043 O   0  0  0  0  0  0  0  0  0  0  0  0
   50.0264  -32.7979 -103.2181 C   0  0  0  0  0  0  0  0  0  0  0  0
   48.8027  -31.9217 -102.9910 C   0  0  0  0  0  0  0  0  0  0  0  0
   47.2216  -32.7727 -103.3640 S   0  0  2  0  0  0  0  0  0  0  0  0
   47.1323  -32.7555 -105.1837 C   0  0  0  0  0  0  0  0  0  0  0  0
   46.1744  -31.3614 -103.0170 C   0  0  0  0  0  0  0  0  0  0  0  0
   46.3661  -30.7894 -101.6375 C   0  0  1  0  0  0  0  0  0  0  0  0
   47.4309  -29.8258 -101.7034 O   0  0  0  0  0  0  0  0  0  0  0  0
   45.1213  -30.0252 -101.4271 C   0  0  1  0  0  0  0  0  0  0  0  0
   44.2011  -30.8079 -100.6682 O   0  0  0  0  0  0  0  0  0  0  0  0
   45.5919  -28.8588 -100.6146 C   0  0  1  0  0  0  0  0  0  0  0  0
   45.5763  -29.1869  -99.2098 O   0  0  0  0  0  0  0  0  0  0  0  0
   47.0532  -28.5750 -101.0750 C   0  0  2  0  0  0  0  0  0  0  0  0
   51.4893  -32.7441 -100.4415 O   0  0  0  0  0  0  0  0  0  0  0  0
   50.2866  -25.3918 -103.8338 N   0  0  0  0  0  0  0  0  0  0  0  0
   50.6223  -26.2564 -102.8449 C   0  0  0  0  0  0  0  0  0  0  0  0
   49.7033  -27.0444 -102.2487 N   0  0  0  0  0  0  0  0  0  0  0  0
   48.4012  -26.9325 -102.5580 C   0  0  0  0  0  0  0  0  0  0  0  0
   47.9936  -25.9949 -103.5765 C   0  0  0  0  0  0  0  0  0  0  0  0
   49.0046  -25.2211 -104.2203 C   0  0  0  0  0  0  0  0  0  0  0  0
   48.6860  -24.3131 -105.2096 N   0  0  0  0  0  0  0  0  0  0  0  0
   46.6624  -26.0776 -103.6846 N   0  0  0  0  0  0  0  0  0  0  0  0
   46.2237  -26.9576 -102.8345 C   0  0  0  0  0  0  0  0  0  0  0  0
   47.2504  -27.5245 -102.1161 N   0  0  0  0  0  0  0  0  0  0  0  0
  2  1  1  1  0  0  0
  2  3  1  0  0  0  0
  2  5  1  0  0  0  0
  3  4  1  0  0  0  0
  3 17  1  0  0  0  0
  5  6  1  0  0  0  0
  7  6  1  6  0  0  0
  7  8  1  0  0  0  0
  7  9  1  0  0  0  0
 10  9  1  6  0  0  0
 10 11  1  0  0  0  0
 10 12  1  0  0  0  0
 11 16  1  0  0  0  0
 12 13  1  1  0  0  0
 12 14  1  0  0  0  0
 14 15  1  1  0  0  0
 14 16  1  0  0  0  0
 16 27  1  6  0  0  0
 18 19  2  0  0  0  0
 18 23  1  0  0  0  0
 19 20  1  0  0  0  0
 20 21  2  0  0  0  0
 21 22  1  0  0  0  0
 21 27  1  0  0  0  0
 22 23  2  0  0  0  0
 22 25  1  0  0  0  0
 23 24  1  0  0  0  0
 25 26  2  0  0  0  0
 26 27  1  0  0  0  0
M  END
>  <CHROM.1>
144.95134030,-177.08576719,-172.68965660,-77.06197585,-55.78282497,87.54534775
-77.54229698,48.18409924,-29.58545244,-102.42449567,-1.38889975,0.22181140
-0.17797654

>  <Name>
ligand

>  <RI>
0

>  <Rbt.Current_Directory>
/home/itssahil/PROJECTS/Mol_Feturizer/New_Systems/rnas/4L81

>  <Rbt.Executable>
rbdock ($Id: //depot/dev/client3/rdock/2013.1/src/exe/rbdock.cxx#4 $)

>  <Rbt.Library>
libRbt.so (2013.1, Build901 2013/11/27)

>  <Rbt.Parameter_File>
/export/apps/rDock/src/rDock_2013.1_src/data/scripts/dock_solv.prm

>  <Rbt.Receptor>
prm/pocket_docking_6.prm

>  <SCORE>
-17.7784

>  <SCORE.INTER>
-16.3031

>  <SCORE.INTER.CONST>
1

>  <SCORE.INTER.POLAR>
0

>  <SCORE.INTER.ROT>
7

>  <SCORE.INTER.SOLV>
13.2309

>  <SCORE.INTER.VDW>
-23.5457

>  <SCORE.INTER.norm>
-0.603818

>  <SCORE.INTRA>
-1.47529

>  <SCORE.INTRA.DIHEDRAL>
-2.13248

>  <SCORE.INTRA.DIHEDRAL.0>
8.34559

>  <SCORE.INTRA.POLAR>
0

>  <SCORE.INTRA.POLAR.0>
0

>  <SCORE.INTRA.REPUL>
0

>  <SCORE.INTRA.REPUL.0>
0

>  <SCORE.INTRA.SOLV>
-1.24061

>  <SCORE.INTRA.SOLV.lig_0>
-48.829

>  <SCORE.INTRA.VDW>
0.211249

>  <SCORE.INTRA.VDW.0>
-1.77092

>  <SCORE.INTRA.norm>
-0.0546405

>  <SCORE.RESTR>
0

>  <SCORE.RESTR.CAVITY>
0

>  <SCORE.RESTR.norm>
0

>  <SCORE.SYSTEM>
0

>  <SCORE.SYSTEM.CONST>
0

>  <SCORE.SYSTEM.DIHEDRAL>
0

>  <SCORE.SYSTEM.SOLV>
0

>  <SCORE.SYSTEM.norm>
0

>  <SCORE.heavy>
27

>  <SCORE.norm>
-0.658459

>  <RMSD>
6.613

$$$$
ligand
 OpenBabel11021811503D
libRbt.so/2013.1/901 2013/11/27
 27 29  0  0  0  0  0  0  0  0999 V2000
   50.7340  -33.6459 -104.2806 N   0  0  0  0  0  0  0  0  0  0  0  0
   51.2891  -32.8207 -103.2018 C   0  0  2  0  0  0  0  0  0  0  0  0
   51.9515  -33.7128 -102.1732 C   0  0  0  0  0  0  0  0  0  0  0  0
   52.2457  -33.2692 -101.0734 O   0  0  0  0  0  0  0  0  0  0  0  0
   50.1956  -31.9945 -102.5111 C   0  0  0  0  0  0  0  0  0  0  0  0
   49.4981  -31.0792 -103.5074 C   0  0  0  0  0  0  0  0  0  0  0  0
   48.2884  -29.9437 -102.7260 S   0  0  2  0  0  0  0  0  0  0  0  0
   49.1775  -29.2827 -101.2795 C   0  0  0  0  0  0  0  0  0  0  0  0
   47.3405  -31.2273 -101.9119 C   0  0  0  0  0  0  0  0  0  0  0  0
   45.9791  -30.7767 -101.4535 C   0  0  1  0  0  0  0  0  0  0  0  0
   46.0582  -29.3741 -101.1479 O   0  0  0  0  0  0  0  0  0  0  0  0
   45.1681  -30.8934 -102.6809 C   0  0  1  0  0  0  0  0  0  0  0  0
   44.4534  -32.1280 -102.6673 O   0  0  0  0  0  0  0  0  0  0  0  0
   44.2128  -29.7482 -102.5468 C   0  0  1  0  0  0  0  0  0  0  0  0
   43.0503  -30.1500 -101.7929 O   0  0  0  0  0  0  0  0  0  0  0  0
   44.9826  -28.6332 -101.7772 C   0  0  2  0  0  0  0  0  0  0  0  0
   52.1661  -34.8864 -102.4212 O   0  0  0  0  0  0  0  0  0  0  0  0
   44.8453  -25.1784 -105.8076 N   0  0  0  0  0  0  0  0  0  0  0  0
   43.8837  -26.0609 -105.4409 C   0  0  0  0  0  0  0  0  0  0  0  0
   44.0273  -26.8601 -104.3631 N   0  0  0  0  0  0  0  0  0  0  0  0
   45.1747  -26.8689 -103.6652 C   0  0  0  0  0  0  0  0  0  0  0  0
   46.2414  -25.9744 -104.0455 C   0  0  0  0  0  0  0  0  0  0  0  0
   46.0262  -25.1072 -105.1577 C   0  0  0  0  0  0  0  0  0  0  0  0
   47.0001  -24.2201 -105.5691 N   0  0  0  0  0  0  0  0  0  0  0  0
   47.2587  -26.1860 -103.2022 N   0  0  0  0  0  0  0  0  0  0  0  0
   46.9225  -27.1178 -102.3607 C   0  0  0  0  0  0  0  0  0  0  0  0
   45.6452  -27.5728 -102.5914 N   0  0  0  0  0  0  0  0  0  0  0  0
  2  1  1  6  0  0  0
  2  3  1  0  0  0  0
  2  5  1  0  0  0  0
  3  4  1  0  0  0  0
  3 17  1  0  0  0  0
  5  6  1  0  0  0  0
  7  6  1  6  0  0  0
  7  8  1  0  0  0  0
  7  9  1  0  0  0  0
 10  9  1  6  0  0  0
 10 11  1  0  0  0  0
 10 12  1  0  0  0  0
 11 16  1  0  0  0  0
 12 13  1  1  0  0  0
 12 14  1  0  0  0  0
 14 15  1  1  0  0  0
 14 16  1  0  0  0  0
 16 27  1  6  0  0  0
 18 19  2  0  0  0  0
 18 23  1  0  0  0  0
 19 20  1  0  0  0  0
 20 21  2  0  0  0  0
 21 22  1  0  0  0  0
 21 27  1  0  0  0  0
 22 23  2  0  0  0  0
 22 25  1  0  0  0  0
 23 24  1  0  0  0  0
 25 26  2  0  0  0  0
 26 27  1  0  0  0  0
M  END
>  <CHROM.1>
-165.62207413,-59.18039734,-174.45786117,45.88288021,-163.11366972,-29.92063796
158.18541467,47.27134023,-29.56751091,-102.94910186,-0.84870835,0.18884179
-0.41468689

>  <Name>
ligand

>  <RI>
0

>  <Rbt.Current_Directory>
/home/itssahil/PROJECTS/Mol_Feturizer/New_Systems/rnas/4L81

>  <Rbt.Executable>
rbdock ($Id: //depot/dev/client3/rdock/2013.1/src/exe/rbdock.cxx#4 $)

>  <Rbt.Library>
libRbt.so (2013.1, Build901 2013/11/27)

>  <Rbt.Parameter_File>
/export/apps/rDock/src/rDock_2013.1_src/data/scripts/dock_solv.prm

>  <Rbt.Receptor>
prm/pocket_docking_7.prm

>  <SCORE>
-14.4372

>  <SCORE.INTER>
-15.1963

>  <SCORE.INTER.CONST>
1

>  <SCORE.INTER.POLAR>
0

>  <SCORE.INTER.ROT>
7

>  <SCORE.INTER.SOLV>
11.1281

>  <SCORE.INTER.VDW>
-22.1069

>  <SCORE.INTER.norm>
-0.562825

>  <SCORE.INTRA>
0.759086

>  <SCORE.INTRA.DIHEDRAL>
-0.739279

>  <SCORE.INTRA.DIHEDRAL.0>
8.34559

>  <SCORE.INTRA.POLAR>
0

>  <SCORE.INTRA.POLAR.0>
0

>  <SCORE.INTRA.REPUL>
0

>  <SCORE.INTRA.REPUL.0>
0

>  <SCORE.INTRA.SOLV>
-0.322247

>  <SCORE.INTRA.SOLV.lig_0>
-48.829

>  <SCORE.INTRA.VDW>
1.28985

>  <SCORE.INTRA.VDW.0>
-1.77092

>  <SCORE.INTRA.norm>
0.0281143

>  <SCORE.RESTR>
0

>  <SCORE.RESTR.CAVITY>
0

>  <SCORE.RESTR.norm>
0

>  <SCORE.SYSTEM>
0

>  <SCORE.SYSTEM.CONST>
0

>  <SCORE.SYSTEM.DIHEDRAL>
0

>  <SCORE.SYSTEM.SOLV>
0

>  <SCORE.SYSTEM.norm>
0

>  <SCORE.heavy>
27

>  <SCORE.norm>
-0.534711

>  <RMSD>
6.628

$$$$
ligand
 OpenBabel11021811503D
libRbt.so/2013.1/901 2013/11/27
 27 29  0  0  0  0  0  0  0  0999 V2000
   51.8004  -30.1610 -102.9785 N   0  0  0  0  0  0  0  0  0  0  0  0
   51.1005  -30.3261 -101.6996 C   0  0  2  0  0  0  0  0  0  0  0  0
   50.8578  -31.7985 -101.4429 C   0  0  0  0  0  0  0  0  0  0  0  0
   51.1244  -32.2845 -100.3540 O   0  0  0  0  0  0  0  0  0  0  0  0
   49.7515  -29.5942 -101.7021 C   0  0  0  0  0  0  0  0  0  0  0  0
   49.0244  -29.7948 -100.3800 C   0  0  0  0  0  0  0  0  0  0  0  0
   47.3327  -29.0867 -100.3675 S   0  0  2  0  0  0  0  0  0  0  0  0
   46.5276  -29.8979  -98.9486 C   0  0  0  0  0  0  0  0  0  0  0  0
   46.6969  -30.1232 -101.6830 C   0  0  0  0  0  0  0  0  0  0  0  0
   45.2318  -29.9173 -101.9621 C   0  0  1  0  0  0  0  0  0  0  0  0
   44.9904  -28.5017 -102.0307 O   0  0  0  0  0  0  0  0  0  0  0  0
   45.0874  -30.4345 -103.3366 C   0  0  1  0  0  0  0  0  0  0  0  0
   44.6025  -31.7756 -103.2954 O   0  0  0  0  0  0  0  0  0  0  0  0
   44.0424  -29.5305 -103.9136 C   0  0  1  0  0  0  0  0  0  0  0  0
   42.7238  -30.0421 -103.6293 O   0  0  0  0  0  0  0  0  0  0  0  0
   44.2353  -28.1499 -103.2174 C   0  0  2  0  0  0  0  0  0  0  0  0
   50.3649  -32.5022 -102.3070 O   0  0  0  0  0  0  0  0  0  0  0  0
   48.6318  -25.1874 -103.5209 N   0  0  0  0  0  0  0  0  0  0  0  0
   48.2795  -26.0468 -102.5334 C   0  0  0  0  0  0  0  0  0  0  0  0
   47.1460  -26.7761 -102.5980 N   0  0  0  0  0  0  0  0  0  0  0  0
   46.2795  -26.6067 -103.6098 C   0  0  0  0  0  0  0  0  0  0  0  0
   46.5947  -25.6715 -104.6627 C   0  0  0  0  0  0  0  0  0  0  0  0
   47.8298  -24.9619 -104.5830 C   0  0  0  0  0  0  0  0  0  0  0  0
   48.1984  -24.0599 -105.5604 N   0  0  0  0  0  0  0  0  0  0  0  0
   45.5767  -25.6907 -105.5310 N   0  0  0  0  0  0  0  0  0  0  0  0
   44.6784  -26.5304 -105.1096 C   0  0  0  0  0  0  0  0  0  0  0  0
   45.0590  -27.1322 -103.9329 N   0  0  0  0  0  0  0  0  0  0  0  0
  2  1  1  6  0  0  0
  2  3  1  0  0  0  0
  2  5  1  0  0  0  0
  3  4  1  0  0  0  0
  3 17  1  0  0  0  0
  5  6  1  0  0  0  0
  7  6  1  1  0  0  0
  7  8  1  0  0  0  0
  7  9  1  0  0  0  0
 10  9  1  6  0  0  0
 10 11  1  0  0  0  0
 10 12  1  0  0  0  0
 11 16  1  0  0  0  0
 12 13  1  1  0  0  0
 12 14  1  0  0  0  0
 14 15  1  1  0  0  0
 14 16  1  0  0  0  0
 16 27  1  6  0  0  0
 18 19  2  0  0  0  0
 18 23  1  0  0  0  0
 19 20  1  0  0  0  0
 20 21  2  0  0  0  0
 21 22  1  0  0  0  0
 21 27  1  0  0  0  0
 22 23  2  0  0  0  0
 22 25  1  0  0  0  0
 23 24  1  0  0  0  0
 25 26  2  0  0  0  0
 26 27  1  0  0  0  0
M  END
>  <CHROM.1>
132.42617896,178.94281444,-174.35148131,162.66832209,176.55121382,46.60787936
0.72167676,47.17991176,-28.73919706,-102.61286465,-0.88403072,-0.15708199
-0.48275909

>  <Name>
ligand

>  <RI>
0

>  <Rbt.Current_Directory>
/home/itssahil/PROJECTS/Mol_Feturizer/New_Systems/rnas/4L81

>  <Rbt.Executable>
rbdock ($Id: //depot/dev/client3/rdock/2013.1/src/exe/rbdock.cxx#4 $)

>  <Rbt.Library>
libRbt.so (2013.1, Build901 2013/11/27)

>  <Rbt.Parameter_File>
/export/apps/rDock/src/rDock_2013.1_src/data/scripts/dock_solv.prm

>  <Rbt.Receptor>
prm/pocket_docking_3.prm

>  <SCORE>
-14.716

>  <SCORE.INTER>
-11.0692

>  <SCORE.INTER.CONST>
1

>  <SCORE.INTER.POLAR>
0

>  <SCORE.INTER.ROT>
7

>  <SCORE.INTER.SOLV>
14.541

>  <SCORE.INTER.VDW>
-20.4931

>  <SCORE.INTER.norm>
-0.40997

>  <SCORE.INTRA>
-3.64678

>  <SCORE.INTRA.DIHEDRAL>
-4.21884

>  <SCORE.INTRA.DIHEDRAL.0>
8.34559

>  <SCORE.INTRA.POLAR>
0

>  <SCORE.INTRA.POLAR.0>
0

>  <SCORE.INTRA.REPUL>
0

>  <SCORE.INTRA.REPUL.0>
0

>  <SCORE.INTRA.SOLV>
-1.21231

>  <SCORE.INTRA.SOLV.lig_0>
-48.829

>  <SCORE.INTRA.VDW>
-0.931201

>  <SCORE.INTRA.VDW.0>
-1.77092

>  <SCORE.INTRA.norm>
-0.135066

>  <SCORE.RESTR>
0

>  <SCORE.RESTR.CAVITY>
0

>  <SCORE.RESTR.norm>
0

>  <SCORE.SYSTEM>
0

>  <SCORE.SYSTEM.CONST>
0

>  <SCORE.SYSTEM.DIHEDRAL>
0

>  <SCORE.SYSTEM.SOLV>
0

>  <SCORE.SYSTEM.norm>
0

>  <SCORE.heavy>
27

>  <SCORE.norm>
-0.545036

>  <RMSD>
6.633

$$$$
ligand
 OpenBabel11021811503D
libRbt.so/2013.1/901 2013/11/27
 27 29  0  0  0  0  0  0  0  0999 V2000
   50.4608  -23.9218 -103.6850 N   0  0  0  0  0  0  0  0  0  0  0  0
   50.3664  -24.8549 -104.8133 C   0  0  2  0  0  0  0  0  0  0  0  0
   49.7495  -24.1491 -106.0024 C   0  0  0  0  0  0  0  0  0  0  0  0
   49.2385  -23.0477 -105.8660 O   0  0  0  0  0  0  0  0  0  0  0  0
   49.5051  -26.0749 -104.4592 C   0  0  0  0  0  0  0  0  0  0  0  0
   50.2088  -26.9558 -103.4365 C   0  0  0  0  0  0  0  0  0  0  0  0
   49.2572  -28.4611 -102.9985 S   0  0  2  0  0  0  0  0  0  0  0  0
   50.4755  -29.5205 -102.1540 C   0  0  0  0  0  0  0  0  0  0  0  0
   49.3273  -29.1963 -104.6304 C   0  0  0  0  0  0  0  0  0  0  0  0
   48.0166  -29.7778 -105.0897 C   0  0  1  0  0  0  0  0  0  0  0  0
   47.0691  -28.7017 -105.1947 O   0  0  0  0  0  0  0  0  0  0  0  0
   48.3177  -30.2075 -106.4690 C   0  0  1  0  0  0  0  0  0  0  0  0
   48.6182  -31.6022 -106.4815 O   0  0  0  0  0  0  0  0  0  0  0  0
   47.0213  -29.9576 -107.1754 C   0  0  1  0  0  0  0  0  0  0  0  0
   46.1543  -31.1043 -107.0539 O   0  0  0  0  0  0  0  0  0  0  0  0
   46.3752  -28.7290 -106.4674 C   0  0  2  0  0  0  0  0  0  0  0  0
   49.7871  -24.6577 -107.1091 O   0  0  0  0  0  0  0  0  0  0  0  0
   48.3997  -25.7453 -110.3658 N   0  0  0  0  0  0  0  0  0  0  0  0
   48.4961  -27.0894 -110.2171 C   0  0  0  0  0  0  0  0  0  0  0  0
   47.8956  -27.7355 -109.1959 N   0  0  0  0  0  0  0  0  0  0  0  0
   47.2514  -27.0509 -108.2367 C   0  0  0  0  0  0  0  0  0  0  0  0
   47.1594  -25.6140 -108.3330 C   0  0  0  0  0  0  0  0  0  0  0  0
   47.7613  -24.9764 -109.4585 C   0  0  0  0  0  0  0  0  0  0  0  0
   47.7024  -23.6068 -109.6180 N   0  0  0  0  0  0  0  0  0  0  0  0
   46.4808  -25.1854 -107.2622 N   0  0  0  0  0  0  0  0  0  0  0  0
   46.1620  -26.2089 -106.5271 C   0  0  0  0  0  0  0  0  0  0  0  0
   46.6036  -27.3880 -107.0805 N   0  0  0  0  0  0  0  0  0  0  0  0
  2  1  1  1  0  0  0
  2  3  1  0  0  0  0
  2  5  1  0  0  0  0
  3  4  1  0  0  0  0
  3 17  1  0  0  0  0
  5  6  1  0  0  0  0
  7  6  1  6  0  0  0
  7  8  1  0  0  0  0
  7  9  1  0  0  0  0
 10  9  1  6  0  0  0
 10 11  1  0  0  0  0
 10 12  1  0  0  0  0
 11 16  1  0  0  0  0
 12 13  1  1  0  0  0
 12 14  1  0  0  0  0
 14 15  1  1  0  0  0
 14 16  1  0  0  0  0
 16 27  1  6  0  0  0
 18 19  2  0  0  0  0
 18 23  1  0  0  0  0
 19 20  1  0  0  0  0
 20 21  2  0  0  0  0
 21 22  1  0  0  0  0
 21 27  1  0  0  0  0
 22 23  2  0  0  0  0
 22 25  1  0  0  0  0
 23 24  1  0  0  0  0
 25 26  2  0  0  0  0
 26 27  1  0  0  0  0
M  END
>  <CHROM.1>
-10.91601416,-69.28391805,-178.40639095,165.16649300,-136.06054283,63.40920470
117.17709184,48.35840698,-27.19946433,-106.27424498,-1.76660728,1.05512033
2.60601282

>  <Name>
ligand

>  <RI>
0

>  <Rbt.Current_Directory>
/home/itssahil/PROJECTS/Mol_Feturizer/New_Systems/rnas/4L81

>  <Rbt.Executable>
rbdock ($Id: //depot/dev/client3/rdock/2013.1/src/exe/rbdock.cxx#4 $)

>  <Rbt.Library>
libRbt.so (2013.1, Build901 2013/11/27)

>  <Rbt.Parameter_File>
/export/apps/rDock/src/rDock_2013.1_src/data/scripts/dock_solv.prm

>  <Rbt.Receptor>
prm/pocket_docking_8.prm

>  <SCORE>
-9.34592

>  <SCORE.INTER>
-6.72539

>  <SCORE.INTER.CONST>
1

>  <SCORE.INTER.POLAR>
0

>  <SCORE.INTER.ROT>
7

>  <SCORE.INTER.SOLV>
9.24102

>  <SCORE.INTER.VDW>
-15.8306

>  <SCORE.INTER.norm>
-0.249089

>  <SCORE.INTRA>
-2.62052

>  <SCORE.INTRA.DIHEDRAL>
-0.343092

>  <SCORE.INTRA.DIHEDRAL.0>
8.34559

>  <SCORE.INTRA.POLAR>
0

>  <SCORE.INTRA.POLAR.0>
0

>  <SCORE.INTRA.REPUL>
0

>  <SCORE.INTRA.REPUL.0>
0

>  <SCORE.INTRA.SOLV>
-0.0902057

>  <SCORE.INTRA.SOLV.lig_0>
-48.829

>  <SCORE.INTRA.VDW>
-2.40387

>  <SCORE.INTRA.VDW.0>
-1.77092

>  <SCORE.INTRA.norm>
-0.0970564

>  <SCORE.RESTR>
0

>  <SCORE.RESTR.CAVITY>
0

>  <SCORE.RESTR.norm>
0

>  <SCORE.SYSTEM>
0

>  <SCORE.SYSTEM.CONST>
0

>  <SCORE.SYSTEM.DIHEDRAL>
0

>  <SCORE.SYSTEM.SOLV>
0

>  <SCORE.SYSTEM.norm>
0

>  <SCORE.heavy>
27

>  <SCORE.norm>
-0.346145

>  <RMSD>
6.634

$$$$
ligand
 OpenBabel11021811503D
libRbt.so/2013.1/901 2013/11/27
 27 29  0  0  0  0  0  0  0  0999 V2000
   50.6189  -33.3232 -105.0306 N   0  0  0  0  0  0  0  0  0  0  0  0
   51.2353  -32.9693 -103.7471 C   0  0  2  0  0  0  0  0  0  0  0  0
   51.7771  -34.2187 -103.0852 C   0  0  0  0  0  0  0  0  0  0  0  0
   52.2733  -34.1577 -101.9704 O   0  0  0  0  0  0  0  0  0  0  0  0
   50.2214  -32.3081 -102.8035 C   0  0  0  0  0  0  0  0  0  0  0  0
   49.8226  -30.9315 -103.3162 C   0  0  0  0  0  0  0  0  0  0  0  0
   48.7046  -30.0288 -102.1767 S   0  0  2  0  0  0  0  0  0  0  0  0
   49.3868  -30.3782 -100.5238 C   0  0  0  0  0  0  0  0  0  0  0  0
   47.3961  -31.2518 -102.2060 C   0  0  0  0  0  0  0  0  0  0  0  0
   46.1139  -30.7825 -101.5716 C   0  0  1  0  0  0  0  0  0  0  0  0
   46.2666  -29.3908 -101.2451 O   0  0  0  0  0  0  0  0  0  0  0  0
   45.1548  -30.8478 -102.6913 C   0  0  1  0  0  0  0  0  0  0  0  0
   44.4154  -32.0657 -102.6184 O   0  0  0  0  0  0  0  0  0  0  0  0
   44.2535  -29.6851 -102.4127 C   0  0  1  0  0  0  0  0  0  0  0  0
   43.1829  -30.0802 -101.5300 O   0  0  0  0  0  0  0  0  0  0  0  0
   45.1411  -28.6089 -101.7184 C   0  0  2  0  0  0  0  0  0  0  0  0
   51.6929  -35.2985 -103.6437 O   0  0  0  0  0  0  0  0  0  0  0  0
   44.6951  -25.2584 -105.8139 N   0  0  0  0  0  0  0  0  0  0  0  0
   43.7864  -26.1696 -105.3873 C   0  0  0  0  0  0  0  0  0  0  0  0
   44.0073  -26.9368 -104.2994 N   0  0  0  0  0  0  0  0  0  0  0  0
   45.1822  -26.8835 -103.6511 C   0  0  0  0  0  0  0  0  0  0  0  0
   46.1949  -25.9566 -104.0961 C   0  0  0  0  0  0  0  0  0  0  0  0
   45.8983  -25.1251 -105.2168 C   0  0  0  0  0  0  0  0  0  0  0  0
   46.8173  -24.2100 -105.6888 N   0  0  0  0  0  0  0  0  0  0  0  0
   47.2542  -26.1077 -103.2925 N   0  0  0  0  0  0  0  0  0  0  0  0
   46.9917  -27.0319 -102.4172 C   0  0  0  0  0  0  0  0  0  0  0  0
   45.7255  -27.5426 -102.5831 N   0  0  0  0  0  0  0  0  0  0  0  0
  2  1  1  6  0  0  0
  2  3  1  0  0  0  0
  2  5  1  0  0  0  0
  3  4  1  0  0  0  0
  3 17  1  0  0  0  0
  5  6  1  0  0  0  0
  7  6  1  6  0  0  0
  7  8  1  0  0  0  0
  7  9  1  0  0  0  0
 10  9  1  6  0  0  0
 10 11  1  0  0  0  0
 10 12  1  0  0  0  0
 11 16  1  0  0  0  0
 12 13  1  1  0  0  0
 12 14  1  0  0  0  0
 14 15  1  1  0  0  0
 14 16  1  0  0  0  0
 16 27  1  6  0  0  0
 18 19  2  0  0  0  0
 18 23  1  0  0  0  0
 19 20  1  0  0  0  0
 20 21  2  0  0  0  0
 21 22  1  0  0  0  0
 21 27  1  0  0  0  0
 22 23  2  0  0  0  0
 22 25  1  0  0  0  0
 23 24  1  0  0  0  0
 25 26  2  0  0  0  0
 26 27  1  0  0  0  0
M  END
>  <CHROM.1>
-176.29807845,-68.70833610,-175.82139683,41.02343000,-169.11004641,6.43858142
151.60440073,47.30578371,-29.67932986,-103.04637794,-0.83076757,0.32594771
-0.44704980

>  <Name>
ligand

>  <RI>
0

>  <Rbt.Current_Directory>
/home/itssahil/PROJECTS/Mol_Feturizer/New_Systems/rnas/4L81

>  <Rbt.Executable>
rbdock ($Id: //depot/dev/client3/rdock/2013.1/src/exe/rbdock.cxx#4 $)

>  <Rbt.Library>
libRbt.so (2013.1, Build901 2013/11/27)

>  <Rbt.Parameter_File>
/export/apps/rDock/src/rDock_2013.1_src/data/scripts/dock_solv.prm

>  <Rbt.Receptor>
prm/pocket_docking_6.prm

>  <SCORE>
-13.7019

>  <SCORE.INTER>
-15.7124

>  <SCORE.INTER.CONST>
1

>  <SCORE.INTER.POLAR>
0

>  <SCORE.INTER.ROT>
7

>  <SCORE.INTER.SOLV>
11.4601

>  <SCORE.INTER.VDW>
-22.5616

>  <SCORE.INTER.norm>
-0.581939

>  <SCORE.INTRA>
2.01042

>  <SCORE.INTRA.DIHEDRAL>
1.32455

>  <SCORE.INTRA.DIHEDRAL.0>
8.34559

>  <SCORE.INTRA.POLAR>
0

>  <SCORE.INTRA.POLAR.0>
0

>  <SCORE.INTRA.REPUL>
0

>  <SCORE.INTRA.REPUL.0>
0

>  <SCORE.INTRA.SOLV>
-0.499269

>  <SCORE.INTRA.SOLV.lig_0>
-48.829

>  <SCORE.INTRA.VDW>
1.59778

>  <SCORE.INTRA.VDW.0>
-1.77092

>  <SCORE.INTRA.norm>
0.07446

>  <SCORE.RESTR>
0

>  <SCORE.RESTR.CAVITY>
0

>  <SCORE.RESTR.norm>
0

>  <SCORE.SYSTEM>
0

>  <SCORE.SYSTEM.CONST>
0

>  <SCORE.SYSTEM.DIHEDRAL>
0

>  <SCORE.SYSTEM.SOLV>
0

>  <SCORE.SYSTEM.norm>
0

>  <SCORE.heavy>
27

>  <SCORE.norm>
-0.507479

>  <RMSD>
6.643

$$$$
ligand
 OpenBabel11021811503D
libRbt.so/2013.1/901 2013/11/27
 27 29  0  0  0  0  0  0  0  0999 V2000
   50.2623  -24.5104 -103.5796 N   0  0  0  0  0  0  0  0  0  0  0  0
   50.6072  -25.8985 -103.9066 C   0  0  2  0  0  0  0  0  0  0  0  0
   50.4357  -26.1248 -105.3939 C   0  0  0  0  0  0  0  0  0  0  0  0
   50.0708  -25.2097 -106.1166 O   0  0  0  0  0  0  0  0  0  0  0  0
   49.7143  -26.8899 -103.1480 C   0  0  0  0  0  0  0  0  0  0  0  0
   50.3195  -28.2864 -103.1657 C   0  0  0  0  0  0  0  0  0  0  0  0
   49.2507  -29.5504 -102.3761 S   0  0  2  0  0  0  0  0  0  0  0  0
   49.4134  -29.2114 -100.5933 C   0  0  0  0  0  0  0  0  0  0  0  0
   50.4291  -30.8921 -102.5168 C   0  0  0  0  0  0  0  0  0  0  0  0
   50.4092  -31.5780 -103.8570 C   0  0  1  0  0  0  0  0  0  0  0  0
   51.5961  -32.3828 -103.9584 O   0  0  0  0  0  0  0  0  0  0  0  0
   49.2769  -32.5151 -103.7252 C   0  0  1  0  0  0  0  0  0  0  0  0
   48.1107  -31.9437 -104.3158 O   0  0  0  0  0  0  0  0  0  0  0  0
   49.7350  -33.6905 -104.5320 C   0  0  1  0  0  0  0  0  0  0  0  0
   49.3747  -33.5186 -105.9184 O   0  0  0  0  0  0  0  0  0  0  0  0
   51.2862  -33.7318 -104.3901 C   0  0  2  0  0  0  0  0  0  0  0  0
   50.6915  -27.2097 -105.8863 O   0  0  0  0  0  0  0  0  0  0  0  0
   52.9178  -34.5119  -99.3974 N   0  0  0  0  0  0  0  0  0  0  0  0
   52.4555  -33.3620  -99.9468 C   0  0  0  0  0  0  0  0  0  0  0  0
   52.0300  -33.3075 -101.2263 N   0  0  0  0  0  0  0  0  0  0  0  0
   52.1345  -34.3791 -102.0289 C   0  0  0  0  0  0  0  0  0  0  0  0
   52.6597  -35.6135 -101.4968 C   0  0  0  0  0  0  0  0  0  0  0  0
   53.0463  -35.6423 -100.1238 C   0  0  0  0  0  0  0  0  0  0  0  0
   53.5471  -36.7922  -99.5480 N   0  0  0  0  0  0  0  0  0  0  0  0
   52.6617  -36.5078 -102.4924 N   0  0  0  0  0  0  0  0  0  0  0  0
   52.2025  -35.9421 -103.5687 C   0  0  0  0  0  0  0  0  0  0  0  0
   51.8535  -34.6310 -103.3433 N   0  0  0  0  0  0  0  0  0  0  0  0
  2  1  1  6  0  0  0
  2  3  1  0  0  0  0
  2  5  1  0  0  0  0
  3  4  1  0  0  0  0
  3 17  1  0  0  0  0
  5  6  1  0  0  0  0
  7  6  1  6  0  0  0
  7  8  1  0  0  0  0
  7  9  1  0  0  0  0
 10  9  1  1  0  0  0
 10 11  1  0  0  0  0
 10 12  1  0  0  0  0
 11 16  1  0  0  0  0
 12 13  1  6  0  0  0
 12 14  1  0  0  0  0
 14 15  1  6  0  0  0
 14 16  1  0  0  0  0
 16 27  1  1  0  0  0
 18 19  2  0  0  0  0
 18 23  1  0  0  0  0
 19 20  1  0  0  0  0
 20 21  2  0  0  0  0
 21 22  1  0  0  0  0
 21 27  1  0  0  0  0
 22 23  2  0  0  0  0
 22 25  1  0  0  0  0
 23 24  1  0  0  0  0
 25 26  2  0  0  0  0
 26 27  1  0  0  0  0
M  END
>  <CHROM.1>
0.59069005,-163.48933038,-176.05212040,-74.25281234,-83.60735554,165.75912532
23.93591977,50.84410515,-31.42458510,-103.02001827,-2.27627737,1.17175850
-2.78117220

>  <Name>
ligand

>  <RI>
0

>  <Rbt.Current_Directory>
/home/itssahil/PROJECTS/Mol_Feturizer/New_Systems/rnas/4L81

>  <Rbt.Executable>
rbdock ($Id: //depot/dev/client3/rdock/2013.1/src/exe/rbdock.cxx#4 $)

>  <Rbt.Library>
libRbt.so (2013.1, Build901 2013/11/27)

>  <Rbt.Parameter_File>
/export/apps/rDock/src/rDock_2013.1_src/data/scripts/dock_solv.prm

>  <Rbt.Receptor>
prm/pocket_docking_8.prm

>  <SCORE>
-19.1296

>  <SCORE.INTER>
-16.482

>  <SCORE.INTER.CONST>
1

>  <SCORE.INTER.POLAR>
0

>  <SCORE.INTER.ROT>
7

>  <SCORE.INTER.SOLV>
8.41775

>  <SCORE.INTER.VDW>
-22.0606

>  <SCORE.INTER.norm>
-0.610446

>  <SCORE.INTRA>
-2.64756

>  <SCORE.INTRA.DIHEDRAL>
-2.55224

>  <SCORE.INTRA.DIHEDRAL.0>
8.34559

>  <SCORE.INTRA.POLAR>
0

>  <SCORE.INTRA.POLAR.0>
0

>  <SCORE.INTRA.REPUL>
0

>  <SCORE.INTRA.REPUL.0>
0

>  <SCORE.INTRA.SOLV>
-1.11324

>  <SCORE.INTRA.SOLV.lig_0>
-48.829

>  <SCORE.INTRA.VDW>
-0.814819

>  <SCORE.INTRA.VDW.0>
-1.77092

>  <SCORE.INTRA.norm>
-0.0980577

>  <SCORE.RESTR>
0

>  <SCORE.RESTR.CAVITY>
0

>  <SCORE.RESTR.norm>
0

>  <SCORE.SYSTEM>
0

>  <SCORE.SYSTEM.CONST>
0

>  <SCORE.SYSTEM.DIHEDRAL>
0

>  <SCORE.SYSTEM.SOLV>
0

>  <SCORE.SYSTEM.norm>
0

>  <SCORE.heavy>
27

>  <SCORE.norm>
-0.708503

>  <RMSD>
6.676

$$$$
ligand
 OpenBabel11021811503D
libRbt.so/2013.1/901 2013/11/27
 27 29  0  0  0  0  0  0  0  0999 V2000
   46.3087  -28.3267  -99.4696 N   0  0  0  0  0  0  0  0  0  0  0  0
   46.7459  -29.7273  -99.4744 C   0  0  2  0  0  0  0  0  0  0  0  0
   48.1616  -29.8128 -100.0045 C   0  0  0  0  0  0  0  0  0  0  0  0
   48.6462  -28.8733 -100.6171 O   0  0  0  0  0  0  0  0  0  0  0  0
   45.8340  -30.5944 -100.3530 C   0  0  0  0  0  0  0  0  0  0  0  0
   45.8353  -30.0963 -101.7914 C   0  0  0  0  0  0  0  0  0  0  0  0
   46.2657  -31.3979 -103.0096 S   0  0  2  0  0  0  0  0  0  0  0  0
   48.0049  -31.7914 -102.6358 C   0  0  0  0  0  0  0  0  0  0  0  0
   46.5191  -30.2776 -104.3841 C   0  0  0  0  0  0  0  0  0  0  0  0
   46.7879  -30.9739 -105.6917 C   0  0  1  0  0  0  0  0  0  0  0  0
   46.3673  -30.0991 -106.7521 O   0  0  0  0  0  0  0  0  0  0  0  0
   48.2622  -31.0141 -105.7410 C   0  0  1  0  0  0  0  0  0  0  0  0
   48.7221  -32.2876 -105.2916 O   0  0  0  0  0  0  0  0  0  0  0  0
   48.5408  -30.8570 -107.2038 C   0  0  1  0  0  0  0  0  0  0  0  0
   48.5274  -32.1427 -107.8582 O   0  0  0  0  0  0  0  0  0  0  0  0
   47.3939  -29.9652 -107.7671 C   0  0  2  0  0  0  0  0  0  0  0  0
   48.8392  -30.8040  -99.7964 O   0  0  0  0  0  0  0  0  0  0  0  0
   46.0771  -24.9531 -106.6081 N   0  0  0  0  0  0  0  0  0  0  0  0
   45.4204  -26.0846 -106.2527 C   0  0  0  0  0  0  0  0  0  0  0  0
   45.8870  -27.3082 -106.5784 N   0  0  0  0  0  0  0  0  0  0  0  0
   46.9797  -27.4419 -107.3476 C   0  0  0  0  0  0  0  0  0  0  0  0
   47.6873  -26.2622 -107.7834 C   0  0  0  0  0  0  0  0  0  0  0  0
   47.1908  -24.9902 -107.3700 C   0  0  0  0  0  0  0  0  0  0  0  0
   47.8242  -23.8220 -107.7425 N   0  0  0  0  0  0  0  0  0  0  0  0
   48.7202  -26.6700 -108.5302 N   0  0  0  0  0  0  0  0  0  0  0  0
   48.7054  -27.9679 -108.5982 C   0  0  0  0  0  0  0  0  0  0  0  0
   47.6593  -28.5014 -107.8822 N   0  0  0  0  0  0  0  0  0  0  0  0
  2  1  1  6  0  0  0
  2  3  1  0  0  0  0
  2  5  1  0  0  0  0
  3  4  1  0  0  0  0
  3 17  1  0  0  0  0
  5  6  1  0  0  0  0
  7  6  1  1  0  0  0
  7  8  1  0  0  0  0
  7  9  1  0  0  0  0
 10  9  1  1  0  0  0
 10 11  1  0  0  0  0
 10 12  1  0  0  0  0
 11 16  1  0  0  0  0
 12 13  1  6  0  0  0
 12 14  1  0  0  0  0
 14 15  1  6  0  0  0
 14 16  1  0  0  0  0
 16 27  1  1  0  0  0
 18 19  2  0  0  0  0
 18 23  1  0  0  0  0
 19 20  1  0  0  0  0
 20 21  2  0  0  0  0
 21 22  1  0  0  0  0
 21 27  1  0  0  0  0
 22 23  2  0  0  0  0
 22 25  1  0  0  0  0
 23 24  1  0  0  0  0
 25 26  2  0  0  0  0
 26 27  1  0  0  0  0
M  END
>  <CHROM.1>
-16.30108989,59.74928717,125.72095779,-66.24296092,-174.76619399,153.79324188
-9.88869070,47.30164536,-29.20640075,-104.74908318,1.72424255,-1.36545825
2.17805276

>  <Name>
ligand

>  <RI>
0

>  <Rbt.Current_Directory>
/home/itssahil/PROJECTS/Mol_Feturizer/New_Systems/rnas/4L81

>  <Rbt.Executable>
rbdock ($Id: //depot/dev/client3/rdock/2013.1/src/exe/rbdock.cxx#4 $)

>  <Rbt.Library>
libRbt.so (2013.1, Build901 2013/11/27)

>  <Rbt.Parameter_File>
/export/apps/rDock/src/rDock_2013.1_src/data/scripts/dock_solv.prm

>  <Rbt.Receptor>
prm/pocket_docking_8.prm

>  <SCORE>
-8.28804

>  <SCORE.INTER>
-9.97679

>  <SCORE.INTER.CONST>
1

>  <SCORE.INTER.POLAR>
0

>  <SCORE.INTER.ROT>
7

>  <SCORE.INTER.SOLV>
13.9144

>  <SCORE.INTER.VDW>
-19.556

>  <SCORE.INTER.norm>
-0.369511

>  <SCORE.INTRA>
1.68875

>  <SCORE.INTRA.DIHEDRAL>
2.82747

>  <SCORE.INTRA.DIHEDRAL.0>
8.34559

>  <SCORE.INTRA.POLAR>
0

>  <SCORE.INTRA.POLAR.0>
0

>  <SCORE.INTRA.REPUL>
0

>  <SCORE.INTRA.REPUL.0>
0

>  <SCORE.INTRA.SOLV>
-0.252582

>  <SCORE.INTRA.SOLV.lig_0>
-48.829

>  <SCORE.INTRA.VDW>
0.401311

>  <SCORE.INTRA.VDW.0>
-1.77092

>  <SCORE.INTRA.norm>
0.0625464

>  <SCORE.RESTR>
0

>  <SCORE.RESTR.CAVITY>
0

>  <SCORE.RESTR.norm>
0

>  <SCORE.SYSTEM>
0

>  <SCORE.SYSTEM.CONST>
0

>  <SCORE.SYSTEM.DIHEDRAL>
0

>  <SCORE.SYSTEM.SOLV>
0

>  <SCORE.SYSTEM.norm>
0

>  <SCORE.heavy>
27

>  <SCORE.norm>
-0.306964

>  <RMSD>
6.692

$$$$
ligand
 OpenBabel11021811503D
libRbt.so/2013.1/901 2013/11/27
 27 29  0  0  0  0  0  0  0  0999 V2000
   49.1100  -29.9976 -103.8775 N   0  0  0  0  0  0  0  0  0  0  0  0
   49.0701  -30.3984 -102.4666 C   0  0  2  0  0  0  0  0  0  0  0  0
   50.4553  -30.8171 -102.0210 C   0  0  0  0  0  0  0  0  0  0  0  0
   51.3533  -30.9403 -102.8402 O   0  0  0  0  0  0  0  0  0  0  0  0
   48.1029  -31.5693 -102.2453 C   0  0  0  0  0  0  0  0  0  0  0  0
   46.6781  -31.1691 -102.6011 C   0  0  0  0  0  0  0  0  0  0  0  0
   46.1021  -29.6710 -101.7137 S   0  0  2  0  0  0  0  0  0  0  0  0
   45.7088  -30.2757 -100.0406 C   0  0  0  0  0  0  0  0  0  0  0  0
   44.4518  -29.6757 -102.4105 C   0  0  0  0  0  0  0  0  0  0  0  0
   44.0862  -28.3939 -103.1105 C   0  0  1  0  0  0  0  0  0  0  0  0
   44.8582  -27.3337 -102.5216 O   0  0  0  0  0  0  0  0  0  0  0  0
   44.6250  -28.6005 -104.4686 C   0  0  1  0  0  0  0  0  0  0  0  0
   43.5818  -29.0420 -105.3360 O   0  0  0  0  0  0  0  0  0  0  0  0
   45.0626  -27.2218 -104.8557 C   0  0  1  0  0  0  0  0  0  0  0  0
   43.9663  -26.4953 -105.4486 O   0  0  0  0  0  0  0  0  0  0  0  0
   45.5063  -26.5243 -103.5349 C   0  0  2  0  0  0  0  0  0  0  0  0
   50.6938  -31.0019 -100.8403 O   0  0  0  0  0  0  0  0  0  0  0  0
   50.5517  -25.6222 -104.9237 N   0  0  0  0  0  0  0  0  0  0  0  0
   49.4410  -25.4483 -105.6814 C   0  0  0  0  0  0  0  0  0  0  0  0
   48.2045  -25.6762 -105.1913 N   0  0  0  0  0  0  0  0  0  0  0  0
   48.0389  -26.1715 -103.9541 C   0  0  0  0  0  0  0  0  0  0  0  0
   49.1967  -26.4109 -103.1266 C   0  0  0  0  0  0  0  0  0  0  0  0
   50.4818  -26.1039 -103.6647 C   0  0  0  0  0  0  0  0  0  0  0  0
   51.6301  -26.2992 -102.9245 N   0  0  0  0  0  0  0  0  0  0  0  0
   48.7592  -26.9029 -101.9616 N   0  0  0  0  0  0  0  0  0  0  0  0
   47.4632  -26.9937 -102.0019 C   0  0  0  0  0  0  0  0  0  0  0  0
   46.9608  -26.5502 -103.2029 N   0  0  0  0  0  0  0  0  0  0  0  0
  2  1  1  6  0  0  0
  2  3  1  0  0  0  0
  2  5  1  0  0  0  0
  3  4  1  0  0  0  0
  3 17  1  0  0  0  0
  5  6  1  0  0  0  0
  7  6  1  6  0  0  0
  7  8  1  0  0  0  0
  7  9  1  0  0  0  0
 10  9  1  1  0  0  0
 10 11  1  0  0  0  0
 10 12  1  0  0  0  0
 11 16  1  0  0  0  0
 12 13  1  6  0  0  0
 12 14  1  0  0  0  0
 14 15  1  1  0  0  0
 14 16  1  0  0  0  0
 16 27  1  1  0  0  0
 18 19  2  0  0  0  0
 18 23  1  0  0  0  0
 19 20  1  0  0  0  0
 20 21  2  0  0  0  0
 21 22  1  0  0  0  0
 21 27  1  0  0  0  0
 22 23  2  0  0  0  0
 22 25  1  0  0  0  0
 23 24  1  0  0  0  0
 25 26  2  0  0  0  0
 26 27  1  0  0  0  0
M  END
>  <CHROM.1>
-8.88318159,-62.59397778,-54.68403209,-77.34990263,-123.81086203,-26.53824860
166.26758339,47.44541053,-28.32675303,-103.13560025,0.19508156,0.09264314
2.61761444

>  <Name>
ligand

>  <RI>
0

>  <Rbt.Current_Directory>
/home/itssahil/PROJECTS/Mol_Feturizer/New_Systems/rnas/4L81

>  <Rbt.Executable>
rbdock ($Id: //depot/dev/client3/rdock/2013.1/src/exe/rbdock.cxx#4 $)

>  <Rbt.Library>
libRbt.so (2013.1, Build901 2013/11/27)

>  <Rbt.Parameter_File>
/export/apps/rDock/src/rDock_2013.1_src/data/scripts/dock_solv.prm

>  <Rbt.Receptor>
prm/pocket_docking_2.prm

>  <SCORE>
-2.19514

>  <SCORE.INTER>
-3.87111

>  <SCORE.INTER.CONST>
1

>  <SCORE.INTER.POLAR>
0

>  <SCORE.INTER.ROT>
7

>  <SCORE.INTER.SOLV>
19.642

>  <SCORE.INTER.VDW>
-17.3947

>  <SCORE.INTER.norm>
-0.143374

>  <SCORE.INTRA>
0.148236

>  <SCORE.INTRA.DIHEDRAL>
2.65072

>  <SCORE.INTRA.DIHEDRAL.0>
8.34559

>  <SCORE.INTRA.POLAR>
0

>  <SCORE.INTRA.POLAR.0>
0

>  <SCORE.INTRA.REPUL>
0

>  <SCORE.INTRA.REPUL.0>
0

>  <SCORE.INTRA.SOLV>
0.804064

>  <SCORE.INTRA.SOLV.lig_0>
-48.829

>  <SCORE.INTRA.VDW>
-1.57916

>  <SCORE.INTRA.VDW.0>
-1.77092

>  <SCORE.INTRA.norm>
0.00549023

>  <SCORE.RESTR>
1.52773

>  <SCORE.RESTR.CAVITY>
1.52773

>  <SCORE.RESTR.norm>
0.0565827

>  <SCORE.SYSTEM>
0

>  <SCORE.SYSTEM.CONST>
0

>  <SCORE.SYSTEM.DIHEDRAL>
0

>  <SCORE.SYSTEM.SOLV>
0

>  <SCORE.SYSTEM.norm>
0

>  <SCORE.heavy>
27

>  <SCORE.norm>
-0.0813016

>  <RMSD>
6.696

$$$$
ligand
 OpenBabel11021811503D
libRbt.so/2013.1/901 2013/11/27
 27 29  0  0  0  0  0  0  0  0999 V2000
   49.2830  -30.1341 -103.6878 N   0  0  0  0  0  0  0  0  0  0  0  0
   49.0443  -30.4381 -102.2724 C   0  0  2  0  0  0  0  0  0  0  0  0
   50.3508  -30.8236 -101.6112 C   0  0  0  0  0  0  0  0  0  0  0  0
   51.4100  -30.6463 -102.1937 O   0  0  0  0  0  0  0  0  0  0  0  0
   48.0463  -31.5926 -102.1093 C   0  0  0  0  0  0  0  0  0  0  0  0
   46.6550  -31.1736 -102.5627 C   0  0  0  0  0  0  0  0  0  0  0  0
   46.0335  -29.6754 -101.7068 S   0  0  2  0  0  0  0  0  0  0  0  0
   45.5623  -30.2780 -100.0532 C   0  0  0  0  0  0  0  0  0  0  0  0
   44.4184  -29.6857 -102.4815 C   0  0  0  0  0  0  0  0  0  0  0  0
   44.0636  -28.3893 -103.1599 C   0  0  1  0  0  0  0  0  0  0  0  0
   44.8390  -27.3445 -102.5483 O   0  0  0  0  0  0  0  0  0  0  0  0
   44.6078  -28.5746 -104.5191 C   0  0  1  0  0  0  0  0  0  0  0  0
   43.5662  -28.9941 -105.3992 O   0  0  0  0  0  0  0  0  0  0  0  0
   45.0553  -27.1917 -104.8790 C   0  0  1  0  0  0  0  0  0  0  0  0
   43.9661  -26.4481 -105.4638 O   0  0  0  0  0  0  0  0  0  0  0  0
   45.4967  -26.5208 -103.5437 C   0  0  2  0  0  0  0  0  0  0  0  0
   50.3589  -31.2819 -100.4821 O   0  0  0  0  0  0  0  0  0  0  0  0
   50.5571  -25.6736 -104.9121 N   0  0  0  0  0  0  0  0  0  0  0  0
   49.4516  -25.4894 -105.6749 C   0  0  0  0  0  0  0  0  0  0  0  0
   48.2107  -25.7036 -105.1898 N   0  0  0  0  0  0  0  0  0  0  0  0
   48.0346  -26.1952 -103.9525 C   0  0  0  0  0  0  0  0  0  0  0  0
   49.1863  -26.4452 -103.1196 C   0  0  0  0  0  0  0  0  0  0  0  0
   50.4768  -26.1525 -103.6527 C   0  0  0  0  0  0  0  0  0  0  0  0
   51.6198  -26.3586 -102.9071 N   0  0  0  0  0  0  0  0  0  0  0  0
   48.7386  -26.9307 -101.9557 N   0  0  0  0  0  0  0  0  0  0  0  0
   47.4419  -27.0081 -102.0015 C   0  0  0  0  0  0  0  0  0  0  0  0
   46.9494  -26.5614 -103.2054 N   0  0  0  0  0  0  0  0  0  0  0  0
  2  1  1  6  0  0  0
  2  3  1  0  0  0  0
  2  5  1  0  0  0  0
  3  4  1  0  0  0  0
  3 17  1  0  0  0  0
  5  6  1  0  0  0  0
  7  6  1  6  0  0  0
  7  8  1  0  0  0  0
  7  9  1  0  0  0  0
 10  9  1  1  0  0  0
 10 11  1  0  0  0  0
 10 12  1  0  0  0  0
 11 16  1  0  0  0  0
 12 13  1  6  0  0  0
 12 14  1  0  0  0  0
 14 15  1  1  0  0  0
 14 16  1  0  0  0  0
 16 27  1  1  0  0  0
 18 19  2  0  0  0  0
 18 23  1  0  0  0  0
 19 20  1  0  0  0  0
 20 21  2  0  0  0  0
 21 22  1  0  0  0  0
 21 27  1  0  0  0  0
 22 23  2  0  0  0  0
 22 25  1  0  0  0  0
 23 24  1  0  0  0  0
 25 26  2  0  0  0  0
 26 27  1  0  0  0  0
M  END
>  <CHROM.1>
11.36261628,-68.06077287,-55.57454877,-75.68736142,-125.82181710,-23.67146056
165.10802575,47.41544680,-28.34016241,-103.07137905,0.30756897,0.12092069
2.58046783

>  <Name>
ligand

>  <RI>
0

>  <Rbt.Current_Directory>
/home/itssahil/PROJECTS/Mol_Feturizer/New_Systems/rnas/4L81

>  <Rbt.Executable>
rbdock ($Id: //depot/dev/client3/rdock/2013.1/src/exe/rbdock.cxx#4 $)

>  <Rbt.Library>
libRbt.so (2013.1, Build901 2013/11/27)

>  <Rbt.Parameter_File>
/export/apps/rDock/src/rDock_2013.1_src/data/scripts/dock_solv.prm

>  <Rbt.Receptor>
prm/pocket_docking_2.prm

>  <SCORE>
-1.82491

>  <SCORE.INTER>
-3.88822

>  <SCORE.INTER.CONST>
1

>  <SCORE.INTER.POLAR>
0

>  <SCORE.INTER.ROT>
7

>  <SCORE.INTER.SOLV>
19.8095

>  <SCORE.INTER.VDW>
-17.462

>  <SCORE.INTER.norm>
-0.144008

>  <SCORE.INTRA>
0.562287

>  <SCORE.INTRA.DIHEDRAL>
3.10881

>  <SCORE.INTRA.DIHEDRAL.0>
8.34559

>  <SCORE.INTRA.POLAR>
0

>  <SCORE.INTRA.POLAR.0>
0

>  <SCORE.INTRA.REPUL>
0

>  <SCORE.INTRA.REPUL.0>
0

>  <SCORE.INTRA.SOLV>
0.54771

>  <SCORE.INTRA.SOLV.lig_0>
-48.829

>  <SCORE.INTRA.VDW>
-1.26597

>  <SCORE.INTRA.VDW.0>
-1.77092

>  <SCORE.INTRA.norm>
0.0208254

>  <SCORE.RESTR>
1.50102

>  <SCORE.RESTR.CAVITY>
1.50102

>  <SCORE.RESTR.norm>
0.0555934

>  <SCORE.SYSTEM>
0

>  <SCORE.SYSTEM.CONST>
0

>  <SCORE.SYSTEM.DIHEDRAL>
0

>  <SCORE.SYSTEM.SOLV>
0

>  <SCORE.SYSTEM.norm>
0

>  <SCORE.heavy>
27

>  <SCORE.norm>
-0.0675892

>  <RMSD>
6.722

$$$$
ligand
 OpenBabel11021811503D
libRbt.so/2013.1/901 2013/11/27
 27 29  0  0  0  0  0  0  0  0999 V2000
   49.2854  -31.3653 -102.9547 N   0  0  0  0  0  0  0  0  0  0  0  0
   49.7354  -30.1024 -102.3587 C   0  0  2  0  0  0  0  0  0  0  0  0
   51.1481  -29.8036 -102.8145 C   0  0  0  0  0  0  0  0  0  0  0  0
   51.5202  -28.6472 -102.9446 O   0  0  0  0  0  0  0  0  0  0  0  0
   49.7125  -30.1684 -100.8256 C   0  0  0  0  0  0  0  0  0  0  0  0
   48.3041  -30.4411 -100.3165 C   0  0  0  0  0  0  0  0  0  0  0  0
   47.1798  -29.0023 -100.4866 S   0  0  2  0  0  0  0  0  0  0  0  0
   45.6407  -29.5499  -99.6799 C   0  0  0  0  0  0  0  0  0  0  0  0
   46.7350  -29.3253 -102.1914 C   0  0  0  0  0  0  0  0  0  0  0  0
   45.5730  -28.5023 -102.6808 C   0  0  1  0  0  0  0  0  0  0  0  0
   45.8897  -27.1172 -102.4611 O   0  0  0  0  0  0  0  0  0  0  0  0
   45.6157  -28.7159 -104.1403 C   0  0  1  0  0  0  0  0  0  0  0  0
   44.6839  -29.7335 -104.5031 O   0  0  0  0  0  0  0  0  0  0  0  0
   45.1611  -27.3927 -104.6737 C   0  0  1  0  0  0  0  0  0  0  0  0
   43.7218  -27.3561 -104.7652 O   0  0  0  0  0  0  0  0  0  0  0  0
   45.6532  -26.3244 -103.6517 C   0  0  2  0  0  0  0  0  0  0  0  0
   51.9339  -30.7114 -103.0228 O   0  0  0  0  0  0  0  0  0  0  0  0
   50.6438  -26.5187 -105.4558 N   0  0  0  0  0  0  0  0  0  0  0  0
   49.7632  -27.5435 -105.3454 C   0  0  0  0  0  0  0  0  0  0  0  0
   48.5014  -27.3512 -104.9074 N   0  0  0  0  0  0  0  0  0  0  0  0
   48.1018  -26.1425 -104.4797 C   0  0  0  0  0  0  0  0  0  0  0  0
   49.0200  -25.0309 -104.5407 C   0  0  0  0  0  0  0  0  0  0  0  0
   50.3267  -25.2670 -105.0623 C   0  0  0  0  0  0  0  0  0  0  0  0
   51.2513  -24.2470 -105.1581 N   0  0  0  0  0  0  0  0  0  0  0  0
   48.3814  -23.9594 -104.0558 N   0  0  0  0  0  0  0  0  0  0  0  0
   47.1806  -24.3084 -103.7012 C   0  0  0  0  0  0  0  0  0  0  0  0
   46.9469  -25.6415 -103.9455 N   0  0  0  0  0  0  0  0  0  0  0  0
  2  1  1  6  0  0  0
  2  3  1  0  0  0  0
  2  5  1  0  0  0  0
  3  4  1  0  0  0  0
  3 17  1  0  0  0  0
  5  6  1  0  0  0  0
  7  6  1  1  0  0  0
  7  8  1  0  0  0  0
  7  9  1  0  0  0  0
 10  9  1  1  0  0  0
 10 11  1  0  0  0  0
 10 12  1  0  0  0  0
 11 16  1  0  0  0  0
 12 13  1  1  0  0  0
 12 14  1  0  0  0  0
 14 15  1  1  0  0  0
 14 16  1  0  0  0  0
 16 27  1  6  0  0  0
 18 19  2  0  0  0  0
 18 23  1  0  0  0  0
 19 20  1  0  0  0  0
 20 21  2  0  0  0  0
 21 22  1  0  0  0  0
 21 27  1  0  0  0  0
 22 23  2  0  0  0  0
 22 25  1  0  0  0  0
 23 24  1  0  0  0  0
 25 26  2  0  0  0  0
 26 27  1  0  0  0  0
M  END
>  <CHROM.1>
148.81555110,-60.27000679,-72.51441908,-175.17233347,168.37261688,55.19300973
75.02277504,47.98455219,-27.91132646,-103.20476990,-1.76193186,0.09252176
-0.60850839

>  <Name>
ligand

>  <RI>
0

>  <Rbt.Current_Directory>
/home/itssahil/PROJECTS/Mol_Feturizer/New_Systems/rnas/4L81

>  <Rbt.Executable>
rbdock ($Id: //depot/dev/client3/rdock/2013.1/src/exe/rbdock.cxx#4 $)

>  <Rbt.Library>
libRbt.so (2013.1, Build901 2013/11/27)

>  <Rbt.Parameter_File>
/export/apps/rDock/src/rDock_2013.1_src/data/scripts/dock_solv.prm

>  <Rbt.Receptor>
prm/pocket_docking_4.prm

>  <SCORE>
-12.5329

>  <SCORE.INTER>
-9.03958

>  <SCORE.INTER.CONST>
1

>  <SCORE.INTER.POLAR>
0

>  <SCORE.INTER.ROT>
7

>  <SCORE.INTER.SOLV>
15.2815

>  <SCORE.INTER.VDW>
-19.3869

>  <SCORE.INTER.norm>
-0.334799

>  <SCORE.INTRA>
-3.49336

>  <SCORE.INTRA.DIHEDRAL>
-3.8877

>  <SCORE.INTRA.DIHEDRAL.0>
8.34559

>  <SCORE.INTRA.POLAR>
0

>  <SCORE.INTRA.POLAR.0>
0

>  <SCORE.INTRA.REPUL>
0

>  <SCORE.INTRA.REPUL.0>
0

>  <SCORE.INTRA.SOLV>
0.915169

>  <SCORE.INTRA.SOLV.lig_0>
-48.829

>  <SCORE.INTRA.VDW>
-2.0071

>  <SCORE.INTRA.VDW.0>
-1.77092

>  <SCORE.INTRA.norm>
-0.129384

>  <SCORE.RESTR>
0

>  <SCORE.RESTR.CAVITY>
0

>  <SCORE.RESTR.norm>
0

>  <SCORE.SYSTEM>
0

>  <SCORE.SYSTEM.CONST>
0

>  <SCORE.SYSTEM.DIHEDRAL>
0

>  <SCORE.SYSTEM.SOLV>
0

>  <SCORE.SYSTEM.norm>
0

>  <SCORE.heavy>
27

>  <SCORE.norm>
-0.464183

>  <RMSD>
6.727

$$$$
ligand
 OpenBabel11021811503D
libRbt.so/2013.1/901 2013/11/27
 27 29  0  0  0  0  0  0  0  0999 V2000
   51.8003  -32.1417 -100.3188 N   0  0  0  0  0  0  0  0  0  0  0  0
   50.8502  -31.9504 -101.4203 C   0  0  2  0  0  0  0  0  0  0  0  0
   51.5887  -32.0108 -102.7408 C   0  0  0  0  0  0  0  0  0  0  0  0
   52.3510  -31.1111 -103.0603 O   0  0  0  0  0  0  0  0  0  0  0  0
   50.1356  -30.5964 -101.3133 C   0  0  0  0  0  0  0  0  0  0  0  0
   49.1630  -30.5887 -100.1424 C   0  0  0  0  0  0  0  0  0  0  0  0
   47.6967  -29.5238 -100.4240 S   0  0  2  0  0  0  0  0  0  0  0  0
   46.6078  -29.8931  -99.0107 C   0  0  0  0  0  0  0  0  0  0  0  0
   46.9381  -30.5872 -101.6498 C   0  0  0  0  0  0  0  0  0  0  0  0
   45.5164  -30.2157 -101.9776 C   0  0  1  0  0  0  0  0  0  0  0  0
   45.3724  -28.7996 -101.7751 O   0  0  0  0  0  0  0  0  0  0  0  0
   45.4499  -30.4399 -103.4346 C   0  0  1  0  0  0  0  0  0  0  0  0
   44.8783  -31.7205 -103.6967 O   0  0  0  0  0  0  0  0  0  0  0  0
   44.5146  -29.3608 -103.8851 C   0  0  1  0  0  0  0  0  0  0  0  0
   43.1474  -29.8127 -103.7972 O   0  0  0  0  0  0  0  0  0  0  0  0
   44.7391  -28.1633 -102.9136 C   0  0  2  0  0  0  0  0  0  0  0  0
   51.4546  -32.9710 -103.4790 O   0  0  0  0  0  0  0  0  0  0  0  0
   45.9780  -24.2202 -106.2475 N   0  0  0  0  0  0  0  0  0  0  0  0
   44.8848  -25.0211 -106.2828 C   0  0  0  0  0  0  0  0  0  0  0  0
   44.6661  -25.9657 -105.3443 N   0  0  0  0  0  0  0  0  0  0  0  0
   45.5773  -26.2034 -104.3868 C   0  0  0  0  0  0  0  0  0  0  0  0
   46.7761  -25.4017 -104.3357 C   0  0  0  0  0  0  0  0  0  0  0  0
   46.9409  -24.3770 -105.3146 C   0  0  0  0  0  0  0  0  0  0  0  0
   48.0585  -23.5672 -105.3181 N   0  0  0  0  0  0  0  0  0  0  0  0
   47.5067  -25.8423 -103.3048 N   0  0  0  0  0  0  0  0  0  0  0  0
   46.8809  -26.8289 -102.7351 C   0  0  0  0  0  0  0  0  0  0  0  0
   45.6811  -27.0930 -103.3534 N   0  0  0  0  0  0  0  0  0  0  0  0
  2  1  1  1  0  0  0
  2  3  1  0  0  0  0
  2  5  1  0  0  0  0
  3  4  1  0  0  0  0
  3 17  1  0  0  0  0
  5  6  1  0  0  0  0
  7  6  1  1  0  0  0
  7  8  1  0  0  0  0
  7  9  1  0  0  0  0
 10  9  1  6  0  0  0
 10 11  1  0  0  0  0
 10 12  1  0  0  0  0
 11 16  1  0  0  0  0
 12 13  1  1  0  0  0
 12 14  1  0  0  0  0
 14 15  1  1  0  0  0
 14 16  1  0  0  0  0
 16 27  1  6  0  0  0
 18 19  2  0  0  0  0
 18 23  1  0  0  0  0
 19 20  1  0  0  0  0
 20 21  2  0  0  0  0
 21 22  1  0  0  0  0
 21 27  1  0  0  0  0
 22 23  2  0  0  0  0
 22 25  1  0  0  0  0
 23 24  1  0  0  0  0
 25 26  2  0  0  0  0
 26 27  1  0  0  0  0
M  END
>  <CHROM.1>
-69.93467150,-70.35503264,-148.66182597,171.78663502,168.24871890,28.98568862
179.46046720,47.27016136,-28.82597271,-102.86155871,-0.95924478,0.02540601
-0.53965711

>  <Name>
ligand

>  <RI>
0

>  <Rbt.Current_Directory>
/home/itssahil/PROJECTS/Mol_Feturizer/New_Systems/rnas/4L81

>  <Rbt.Executable>
rbdock ($Id: //depot/dev/client3/rdock/2013.1/src/exe/rbdock.cxx#4 $)

>  <Rbt.Library>
libRbt.so (2013.1, Build901 2013/11/27)

>  <Rbt.Parameter_File>
/export/apps/rDock/src/rDock_2013.1_src/data/scripts/dock_solv.prm

>  <Rbt.Receptor>
prm/pocket_docking_7.prm

>  <SCORE>
-13.4528

>  <SCORE.INTER>
-13.9433

>  <SCORE.INTER.CONST>
1

>  <SCORE.INTER.POLAR>
0

>  <SCORE.INTER.ROT>
7

>  <SCORE.INTER.SOLV>
14.5362

>  <SCORE.INTER.VDW>
-22.4076

>  <SCORE.INTER.norm>
-0.516418

>  <SCORE.INTRA>
0.47964

>  <SCORE.INTRA.DIHEDRAL>
0.899818

>  <SCORE.INTRA.DIHEDRAL.0>
8.34559

>  <SCORE.INTRA.POLAR>
0

>  <SCORE.INTRA.POLAR.0>
0

>  <SCORE.INTRA.REPUL>
0

>  <SCORE.INTRA.REPUL.0>
0

>  <SCORE.INTRA.SOLV>
-0.566434

>  <SCORE.INTRA.SOLV.lig_0>
-48.829

>  <SCORE.INTRA.VDW>
0.312948

>  <SCORE.INTRA.VDW.0>
-1.77092

>  <SCORE.INTRA.norm>
0.0177645

>  <SCORE.RESTR>
0.0108717

>  <SCORE.RESTR.CAVITY>
0.0108717

>  <SCORE.RESTR.norm>
0.000402657

>  <SCORE.SYSTEM>
0

>  <SCORE.SYSTEM.CONST>
0

>  <SCORE.SYSTEM.DIHEDRAL>
0

>  <SCORE.SYSTEM.SOLV>
0

>  <SCORE.SYSTEM.norm>
0

>  <SCORE.heavy>
27

>  <SCORE.norm>
-0.49825

>  <RMSD>
6.733

$$$$
ligand
 OpenBabel11021811503D
libRbt.so/2013.1/901 2013/11/27
 27 29  0  0  0  0  0  0  0  0999 V2000
   49.6328  -31.8618 -102.7610 N   0  0  0  0  0  0  0  0  0  0  0  0
   50.7848  -31.2200 -102.1177 C   0  0  2  0  0  0  0  0  0  0  0  0
   51.5068  -32.2299 -101.2508 C   0  0  0  0  0  0  0  0  0  0  0  0
   51.2116  -32.3498 -100.0713 O   0  0  0  0  0  0  0  0  0  0  0  0
   50.3489  -30.0369 -101.2427 C   0  0  0  0  0  0  0  0  0  0  0  0
   49.2140  -30.4410 -100.3122 C   0  0  0  0  0  0  0  0  0  0  0  0
   47.7369  -29.3640 -100.4592 S   0  0  2  0  0  0  0  0  0  0  0  0
   46.6333  -29.9489  -99.1327 C   0  0  0  0  0  0  0  0  0  0  0  0
   47.0111  -30.2458 -101.8392 C   0  0  0  0  0  0  0  0  0  0  0  0
   45.5272  -30.0338 -101.9806 C   0  0  1  0  0  0  0  0  0  0  0  0
   45.2791  -28.6180 -101.9533 O   0  0  0  0  0  0  0  0  0  0  0  0
   45.2660  -30.4788 -103.3632 C   0  0  1  0  0  0  0  0  0  0  0  0
   44.7879  -31.8229 -103.3517 O   0  0  0  0  0  0  0  0  0  0  0  0
   44.1744  -29.5516 -103.8000 C   0  0  1  0  0  0  0  0  0  0  0  0
   42.8855  -30.0849 -103.4314 O   0  0  0  0  0  0  0  0  0  0  0  0
   44.4247  -28.2085 -103.0507 C   0  0  2  0  0  0  0  0  0  0  0  0
   52.3634  -32.9527 -101.7291 O   0  0  0  0  0  0  0  0  0  0  0  0
   48.6544  -25.0196 -103.4227 N   0  0  0  0  0  0  0  0  0  0  0  0
   48.3628  -25.8950 -102.4294 C   0  0  0  0  0  0  0  0  0  0  0  0
   47.2683  -26.6829 -102.4764 N   0  0  0  0  0  0  0  0  0  0  0  0
   46.3788  -26.5606 -103.4751 C   0  0  0  0  0  0  0  0  0  0  0  0
   46.6285  -25.6115 -104.5331 C   0  0  0  0  0  0  0  0  0  0  0  0
   47.8257  -24.8379 -104.4725 C   0  0  0  0  0  0  0  0  0  0  0  0
   48.1315  -23.9191 -105.4559 N   0  0  0  0  0  0  0  0  0  0  0  0
   45.5998  -25.6854 -105.3858 N   0  0  0  0  0  0  0  0  0  0  0  0
   44.7534  -26.5705 -104.9504 C   0  0  0  0  0  0  0  0  0  0  0  0
   45.1829  -27.1499 -103.7793 N   0  0  0  0  0  0  0  0  0  0  0  0
  2  1  1  1  0  0  0
  2  3  1  0  0  0  0
  2  5  1  0  0  0  0
  3  4  1  0  0  0  0
  3 17  1  0  0  0  0
  5  6  1  0  0  0  0
  7  6  1  1  0  0  0
  7  8  1  0  0  0  0
  7  9  1  0  0  0  0
 10  9  1  6  0  0  0
 10 11  1  0  0  0  0
 10 12  1  0  0  0  0
 11 16  1  0  0  0  0
 12 13  1  1  0  0  0
 12 14  1  0  0  0  0
 14 15  1  1  0  0  0
 14 16  1  0  0  0  0
 16 27  1  6  0  0  0
 18 19  2  0  0  0  0
 18 23  1  0  0  0  0
 19 20  1  0  0  0  0
 20 21  2  0  0  0  0
 21 22  1  0  0  0  0
 21 27  1  0  0  0  0
 22 23  2  0  0  0  0
 22 25  1  0  0  0  0
 23 24  1  0  0  0  0
 25 26  2  0  0  0  0
 26 27  1  0  0  0  0
M  END
>  <CHROM.1>
-91.60068704,49.69769302,-125.22121468,-174.03140263,157.92560321,50.60011990
-5.09343858,47.34339681,-28.92470600,-102.52031720,-0.92308124,-0.17769368
-0.40324605

>  <Name>
ligand

>  <RI>
0

>  <Rbt.Current_Directory>
/home/itssahil/PROJECTS/Mol_Feturizer/New_Systems/rnas/4L81

>  <Rbt.Executable>
rbdock ($Id: //depot/dev/client3/rdock/2013.1/src/exe/rbdock.cxx#4 $)

>  <Rbt.Library>
libRbt.so (2013.1, Build901 2013/11/27)

>  <Rbt.Parameter_File>
/export/apps/rDock/src/rDock_2013.1_src/data/scripts/dock_solv.prm

>  <Rbt.Receptor>
prm/pocket_docking_3.prm

>  <SCORE>
-13.7755

>  <SCORE.INTER>
-16.0729

>  <SCORE.INTER.CONST>
1

>  <SCORE.INTER.POLAR>
0

>  <SCORE.INTER.ROT>
7

>  <SCORE.INTER.SOLV>
9.61726

>  <SCORE.INTER.VDW>
-22.1877

>  <SCORE.INTER.norm>
-0.595293

>  <SCORE.INTRA>
2.29738

>  <SCORE.INTRA.DIHEDRAL>
2.24339

>  <SCORE.INTRA.DIHEDRAL.0>
8.34559

>  <SCORE.INTRA.POLAR>
0

>  <SCORE.INTRA.POLAR.0>
0

>  <SCORE.INTRA.REPUL>
0

>  <SCORE.INTRA.REPUL.0>
0

>  <SCORE.INTRA.SOLV>
1.16236

>  <SCORE.INTRA.SOLV.lig_0>
-48.829

>  <SCORE.INTRA.VDW>
0.594501

>  <SCORE.INTRA.VDW.0>
-1.77092

>  <SCORE.INTRA.norm>
0.0850881

>  <SCORE.RESTR>
0

>  <SCORE.RESTR.CAVITY>
0

>  <SCORE.RESTR.norm>
0

>  <SCORE.SYSTEM>
0

>  <SCORE.SYSTEM.CONST>
0

>  <SCORE.SYSTEM.DIHEDRAL>
0

>  <SCORE.SYSTEM.SOLV>
0

>  <SCORE.SYSTEM.norm>
0

>  <SCORE.heavy>
27

>  <SCORE.norm>
-0.510205

>  <RMSD>
6.745

$$$$
ligand
 OpenBabel11021811503D
libRbt.so/2013.1/901 2013/11/27
 27 29  0  0  0  0  0  0  0  0999 V2000
   51.6801  -29.6879 -102.5993 N   0  0  0  0  0  0  0  0  0  0  0  0
   50.8576  -29.8864 -101.4006 C   0  0  2  0  0  0  0  0  0  0  0  0
   50.5342  -31.3578 -101.2477 C   0  0  0  0  0  0  0  0  0  0  0  0
   49.9787  -31.9620 -102.1527 O   0  0  0  0  0  0  0  0  0  0  0  0
   49.5447  -29.0964 -101.4864 C   0  0  0  0  0  0  0  0  0  0  0  0
   48.6594  -29.3852 -100.2823 C   0  0  0  0  0  0  0  0  0  0  0  0
   46.9314  -28.8100 -100.4976 S   0  0  2  0  0  0  0  0  0  0  0  0
   45.9561  -29.9551  -99.4695 C   0  0  0  0  0  0  0  0  0  0  0  0
   46.6843  -29.5840 -102.0940 C   0  0  0  0  0  0  0  0  0  0  0  0
   45.2985  -29.3947 -102.6512 C   0  0  1  0  0  0  0  0  0  0  0  0
   44.9826  -27.9939 -102.5818 O   0  0  0  0  0  0  0  0  0  0  0  0
   45.4769  -29.7141 -104.0808 C   0  0  1  0  0  0  0  0  0  0  0  0
   45.0846  -31.0643 -104.3227 O   0  0  0  0  0  0  0  0  0  0  0  0
   44.5163  -28.7761 -104.7436 C   0  0  1  0  0  0  0  0  0  0  0  0
   43.2045  -29.3718 -104.8192 O   0  0  0  0  0  0  0  0  0  0  0  0
   44.4681  -27.5036 -103.8455 C   0  0  2  0  0  0  0  0  0  0  0  0
   50.8543  -31.9578 -100.2366 O   0  0  0  0  0  0  0  0  0  0  0  0
   48.8448  -24.6112 -103.0225 N   0  0  0  0  0  0  0  0  0  0  0  0
   48.3994  -25.6641 -102.2939 C   0  0  0  0  0  0  0  0  0  0  0  0
   47.2856  -26.3444 -102.6368 N   0  0  0  0  0  0  0  0  0  0  0  0
   46.5277  -25.9411 -103.6695 C   0  0  0  0  0  0  0  0  0  0  0  0
   46.9423  -24.7992 -104.4483 C   0  0  0  0  0  0  0  0  0  0  0  0
   48.1557  -24.1430 -104.0846 C   0  0  0  0  0  0  0  0  0  0  0  0
   48.6157  -23.0511 -104.7923 N   0  0  0  0  0  0  0  0  0  0  0  0
   46.0204  -24.6097 -105.3997 N   0  0  0  0  0  0  0  0  0  0  0  0
   45.0909  -25.5093 -105.2719 C   0  0  0  0  0  0  0  0  0  0  0  0
   45.3524  -26.3638 -104.2264 N   0  0  0  0  0  0  0  0  0  0  0  0
  2  1  1  6  0  0  0
  2  3  1  0  0  0  0
  2  5  1  0  0  0  0
  3  4  1  0  0  0  0
  3 17  1  0  0  0  0
  5  6  1  0  0  0  0
  7  6  1  1  0  0  0
  7  8  1  0  0  0  0
  7  9  1  0  0  0  0
 10  9  1  1  0  0  0
 10 11  1  0  0  0  0
 10 12  1  0  0  0  0
 11 16  1  0  0  0  0
 12 13  1  1  0  0  0
 12 14  1  0  0  0  0
 14 15  1  1  0  0  0
 14 16  1  0  0  0  0
 16 27  1  6  0  0  0
 18 19  2  0  0  0  0
 18 23  1  0  0  0  0
 19 20  1  0  0  0  0
 20 21  2  0  0  0  0
 21 22  1  0  0  0  0
 21 27  1  0  0  0  0
 22 23  2  0  0  0  0
 22 25  1  0  0  0  0
 23 24  1  0  0  0  0
 25 26  2  0  0  0  0
 26 27  1  0  0  0  0
M  END
>  <CHROM.1>
-56.37472195,176.11664795,-166.15223071,151.26892798,177.87672891,50.24004264
9.22647011,47.23139943,-28.16594793,-102.75558868,-1.00477168,-0.34770671
-0.37513182

>  <Name>
ligand

>  <RI>
0

>  <Rbt.Current_Directory>
/home/itssahil/PROJECTS/Mol_Feturizer/New_Systems/rnas/4L81

>  <Rbt.Executable>
rbdock ($Id: //depot/dev/client3/rdock/2013.1/src/exe/rbdock.cxx#4 $)

>  <Rbt.Library>
libRbt.so (2013.1, Build901 2013/11/27)

>  <Rbt.Parameter_File>
/export/apps/rDock/src/rDock_2013.1_src/data/scripts/dock_solv.prm

>  <Rbt.Receptor>
prm/pocket_docking_8.prm

>  <SCORE>
-15.3348

>  <SCORE.INTER>
-12.8833

>  <SCORE.INTER.CONST>
1

>  <SCORE.INTER.POLAR>
0

>  <SCORE.INTER.ROT>
7

>  <SCORE.INTER.SOLV>
13.9728

>  <SCORE.INTER.VDW>
-21.5131

>  <SCORE.INTER.norm>
-0.477159

>  <SCORE.INTRA>
-2.45148

>  <SCORE.INTRA.DIHEDRAL>
-2.96494

>  <SCORE.INTRA.DIHEDRAL.0>
8.34559

>  <SCORE.INTRA.POLAR>
0

>  <SCORE.INTRA.POLAR.0>
0

>  <SCORE.INTRA.REPUL>
0

>  <SCORE.INTRA.REPUL.0>
0

>  <SCORE.INTRA.SOLV>
-1.20995

>  <SCORE.INTRA.SOLV.lig_0>
-48.829

>  <SCORE.INTRA.VDW>
-0.36403

>  <SCORE.INTRA.VDW.0>
-1.77092

>  <SCORE.INTRA.norm>
-0.0907954

>  <SCORE.RESTR>
0

>  <SCORE.RESTR.CAVITY>
0

>  <SCORE.RESTR.norm>
0

>  <SCORE.SYSTEM>
0

>  <SCORE.SYSTEM.CONST>
0

>  <SCORE.SYSTEM.DIHEDRAL>
0

>  <SCORE.SYSTEM.SOLV>
0

>  <SCORE.SYSTEM.norm>
0

>  <SCORE.heavy>
27

>  <SCORE.norm>
-0.567954

>  <RMSD>
6.745

$$$$
ligand
 OpenBabel11021811503D
libRbt.so/2013.1/901 2013/11/27
 27 29  0  0  0  0  0  0  0  0999 V2000
   48.0295  -31.2617 -101.1318 N   0  0  0  0  0  0  0  0  0  0  0  0
   47.6836  -29.8359 -101.1192 C   0  0  2  0  0  0  0  0  0  0  0  0
   48.9369  -29.0138 -100.9042 C   0  0  0  0  0  0  0  0  0  0  0  0
   49.8034  -29.4040 -100.1363 O   0  0  0  0  0  0  0  0  0  0  0  0
   46.6815  -29.5137 -100.0023 C   0  0  0  0  0  0  0  0  0  0  0  0
   45.3924  -30.3015 -100.1879 C   0  0  0  0  0  0  0  0  0  0  0  0
   44.3161  -29.6303 -101.5125 S   0  0  2  0  0  0  0  0  0  0  0  0
   43.0491  -30.9189 -101.7440 C   0  0  0  0  0  0  0  0  0  0  0  0
   45.4085  -30.0627 -102.8647 C   0  0  0  0  0  0  0  0  0  0  0  0
   44.7010  -30.2417 -104.1816 C   0  0  1  0  0  0  0  0  0  0  0  0
   44.0641  -28.9961 -104.5132 O   0  0  0  0  0  0  0  0  0  0  0  0
   45.8187  -30.4069 -105.1308 C   0  0  1  0  0  0  0  0  0  0  0  0
   46.0349  -31.7951 -105.3794 O   0  0  0  0  0  0  0  0  0  0  0  0
   45.2946  -29.7420 -106.3658 C   0  0  1  0  0  0  0  0  0  0  0  0
   44.5394  -30.6808 -107.1593 O   0  0  0  0  0  0  0  0  0  0  0  0
   44.3617  -28.5947 -105.8742 C   0  0  2  0  0  0  0  0  0  0  0  0
   49.1063  -27.9753 -101.5188 O   0  0  0  0  0  0  0  0  0  0  0  0
   47.3979  -24.7401 -107.9044 N   0  0  0  0  0  0  0  0  0  0  0  0
   47.1665  -25.9711 -108.4231 C   0  0  0  0  0  0  0  0  0  0  0  0
   46.3345  -26.8487 -107.8243 N   0  0  0  0  0  0  0  0  0  0  0  0
   45.7731  -26.5607 -106.6388 C   0  0  0  0  0  0  0  0  0  0  0  0
   46.0249  -25.2769 -106.0297 C   0  0  0  0  0  0  0  0  0  0  0  0
   46.8667  -24.3577 -106.7239 C   0  0  0  0  0  0  0  0  0  0  0  0
   47.1414  -23.1094 -106.2034 N   0  0  0  0  0  0  0  0  0  0  0  0
   45.3601  -25.2493 -104.8687 N   0  0  0  0  0  0  0  0  0  0  0  0
   44.7423  -26.3817 -104.7091 C   0  0  0  0  0  0  0  0  0  0  0  0
   44.9531  -27.2287 -105.7720 N   0  0  0  0  0  0  0  0  0  0  0  0
  2  1  1  1  0  0  0
  2  3  1  0  0  0  0
  2  5  1  0  0  0  0
  3  4  1  0  0  0  0
  3 17  1  0  0  0  0
  5  6  1  0  0  0  0
  7  6  1  1  0  0  0
  7  8  1  0  0  0  0
  7  9  1  0  0  0  0
 10  9  1  1  0  0  0
 10 11  1  0  0  0  0
 10 12  1  0  0  0  0
 11 16  1  0  0  0  0
 12 13  1  6  0  0  0
 12 14  1  0  0  0  0
 14 15  1  6  0  0  0
 14 16  1  0  0  0  0
 16 27  1  1  0  0  0
 18 19  2  0  0  0  0
 18 23  1  0  0  0  0
 19 20  1  0  0  0  0
 20 21  2  0  0  0  0
 21 22  1  0  0  0  0
 21 27  1  0  0  0  0
 22 23  2  0  0  0  0
 22 25  1  0  0  0  0
 23 24  1  0  0  0  0
 25 26  2  0  0  0  0
 26 27  1  0  0  0  0
M  END
>  <CHROM.1>
-38.24261361,-60.10164134,-76.09618936,169.06892555,154.78440299,60.53016675
157.00431806,46.02691185,-28.45022820,-104.06183260,-1.51431251,-0.78165540
-0.88317358

>  <Name>
ligand

>  <RI>
0

>  <Rbt.Current_Directory>
/home/itssahil/PROJECTS/Mol_Feturizer/New_Systems/rnas/4L81

>  <Rbt.Executable>
rbdock ($Id: //depot/dev/client3/rdock/2013.1/src/exe/rbdock.cxx#4 $)

>  <Rbt.Library>
libRbt.so (2013.1, Build901 2013/11/27)

>  <Rbt.Parameter_File>
/export/apps/rDock/src/rDock_2013.1_src/data/scripts/dock_solv.prm

>  <Rbt.Receptor>
prm/pocket_docking_7.prm

>  <SCORE>
-15.7534

>  <SCORE.INTER>
-15.8102

>  <SCORE.INTER.CONST>
1

>  <SCORE.INTER.POLAR>
0

>  <SCORE.INTER.ROT>
7

>  <SCORE.INTER.SOLV>
14.4548

>  <SCORE.INTER.VDW>
-23.6251

>  <SCORE.INTER.norm>
-0.585564

>  <SCORE.INTRA>
0.0358095

>  <SCORE.INTRA.DIHEDRAL>
-3.19441

>  <SCORE.INTRA.DIHEDRAL.0>
8.34559

>  <SCORE.INTRA.POLAR>
0

>  <SCORE.INTRA.POLAR.0>
0

>  <SCORE.INTRA.REPUL>
0

>  <SCORE.INTRA.REPUL.0>
0

>  <SCORE.INTRA.SOLV>
0.856236

>  <SCORE.INTRA.SOLV.lig_0>
-48.829

>  <SCORE.INTRA.VDW>
1.2049

>  <SCORE.INTRA.VDW.0>
-1.77092

>  <SCORE.INTRA.norm>
0.00132628

>  <SCORE.RESTR>
0.0210089

>  <SCORE.RESTR.CAVITY>
0.0210089

>  <SCORE.RESTR.norm>
0.000778106

>  <SCORE.SYSTEM>
0

>  <SCORE.SYSTEM.CONST>
0

>  <SCORE.SYSTEM.DIHEDRAL>
0

>  <SCORE.SYSTEM.SOLV>
0

>  <SCORE.SYSTEM.norm>
0

>  <SCORE.heavy>
27

>  <SCORE.norm>
-0.583459

>  <RMSD>
6.789

$$$$
ligand
 OpenBabel11021811503D
libRbt.so/2013.1/901 2013/11/27
 27 29  0  0  0  0  0  0  0  0999 V2000
   51.3613  -30.8933 -100.1284 N   0  0  0  0  0  0  0  0  0  0  0  0
   50.4902  -31.2228 -101.2622 C   0  0  2  0  0  0  0  0  0  0  0  0
   50.9201  -30.4280 -102.4772 C   0  0  0  0  0  0  0  0  0  0  0  0
   50.6913  -30.8507 -103.6005 O   0  0  0  0  0  0  0  0  0  0  0  0
   49.0224  -30.8994 -100.9518 C   0  0  0  0  0  0  0  0  0  0  0  0
   48.8681  -29.4492 -100.5159 C   0  0  0  0  0  0  0  0  0  0  0  0
   47.1481  -28.8285 -100.6558 S   0  0  2  0  0  0  0  0  0  0  0  0
   46.1539  -30.0939  -99.8013 C   0  0  0  0  0  0  0  0  0  0  0  0
   46.9012  -29.3695 -102.3455 C   0  0  0  0  0  0  0  0  0  0  0  0
   45.4911  -29.1862 -102.8404 C   0  0  1  0  0  0  0  0  0  0  0  0
   45.2251  -27.7746 -102.9021 O   0  0  0  0  0  0  0  0  0  0  0  0
   45.5728  -29.6589 -104.2359 C   0  0  1  0  0  0  0  0  0  0  0  0
   45.1235  -31.0109 -104.3109 O   0  0  0  0  0  0  0  0  0  0  0  0
   44.6047  -28.7587 -104.9391 C   0  0  1  0  0  0  0  0  0  0  0  0
   43.2722  -29.3084 -104.8769 O   0  0  0  0  0  0  0  0  0  0  0  0
   44.6515  -27.3990 -104.1796 C   0  0  2  0  0  0  0  0  0  0  0  0
   51.4668  -29.3469 -102.3452 O   0  0  0  0  0  0  0  0  0  0  0  0
   47.3440  -25.3186 -108.2565 N   0  0  0  0  0  0  0  0  0  0  0  0
   46.6100  -26.4583 -108.2449 C   0  0  0  0  0  0  0  0  0  0  0  0
   45.9353  -26.8570 -107.1463 N   0  0  0  0  0  0  0  0  0  0  0  0
   46.0421  -26.1774 -105.9930 C   0  0  0  0  0  0  0  0  0  0  0  0
   46.8464  -24.9801 -105.9488 C   0  0  0  0  0  0  0  0  0  0  0  0
   47.4981  -24.5642 -107.1478 C   0  0  0  0  0  0  0  0  0  0  0  0
   48.2746  -23.4236 -107.1787 N   0  0  0  0  0  0  0  0  0  0  0  0
   46.7882  -24.5067 -104.6984 N   0  0  0  0  0  0  0  0  0  0  0  0
   46.0425  -25.2950 -103.9830 C   0  0  0  0  0  0  0  0  0  0  0  0
   45.5475  -26.3395 -104.7284 N   0  0  0  0  0  0  0  0  0  0  0  0
  2  1  1  1  0  0  0
  2  3  1  0  0  0  0
  2  5  1  0  0  0  0
  3  4  1  0  0  0  0
  3 17  1  0  0  0  0
  5  6  1  0  0  0  0
  7  6  1  1  0  0  0
  7  8  1  0  0  0  0
  7  9  1  0  0  0  0
 10  9  1  6  0  0  0
 10 11  1  0  0  0  0
 10 12  1  0  0  0  0
 11 16  1  0  0  0  0
 12 13  1  1  0  0  0
 12 14  1  0  0  0  0
 14 15  1  1  0  0  0
 14 16  1  0  0  0  0
 16 27  1  6  0  0  0
 18 19  2  0  0  0  0
 18 23  1  0  0  0  0
 19 20  1  0  0  0  0
 20 21  2  0  0  0  0
 21 22  1  0  0  0  0
 21 27  1  0  0  0  0
 22 23  2  0  0  0  0
 22 25  1  0  0  0  0
 23 24  1  0  0  0  0
 25 26  2  0  0  0  0
 26 27  1  0  0  0  0
M  END
>  <CHROM.1>
153.86268241,54.57084670,161.12397690,50.46313216,173.33851252,66.02855585
135.73822168,47.18493097,-28.20841097,-103.69747293,-1.17229368,-0.07421183
-0.81969174

>  <Name>
ligand

>  <RI>
0

>  <Rbt.Current_Directory>
/home/itssahil/PROJECTS/Mol_Feturizer/New_Systems/rnas/4L81

>  <Rbt.Executable>
rbdock ($Id: //depot/dev/client3/rdock/2013.1/src/exe/rbdock.cxx#4 $)

>  <Rbt.Library>
libRbt.so (2013.1, Build901 2013/11/27)

>  <Rbt.Parameter_File>
/export/apps/rDock/src/rDock_2013.1_src/data/scripts/dock_solv.prm

>  <Rbt.Receptor>
prm/pocket_docking_7.prm

>  <SCORE>
-11.2946

>  <SCORE.INTER>
-10.4028

>  <SCORE.INTER.CONST>
1

>  <SCORE.INTER.POLAR>
0

>  <SCORE.INTER.ROT>
7

>  <SCORE.INTER.SOLV>
14.8156

>  <SCORE.INTER.VDW>
-20.1404

>  <SCORE.INTER.norm>
-0.385289

>  <SCORE.INTRA>
-0.891773

>  <SCORE.INTRA.DIHEDRAL>
-3.64756

>  <SCORE.INTRA.DIHEDRAL.0>
8.34559

>  <SCORE.INTRA.POLAR>
0

>  <SCORE.INTRA.POLAR.0>
0

>  <SCORE.INTRA.REPUL>
0

>  <SCORE.INTRA.REPUL.0>
0

>  <SCORE.INTRA.SOLV>
-0.593384

>  <SCORE.INTRA.SOLV.lig_0>
-48.829

>  <SCORE.INTRA.VDW>
1.2287

>  <SCORE.INTRA.VDW.0>
-1.77092

>  <SCORE.INTRA.norm>
-0.0330286

>  <SCORE.RESTR>
0

>  <SCORE.RESTR.CAVITY>
0

>  <SCORE.RESTR.norm>
0

>  <SCORE.SYSTEM>
0

>  <SCORE.SYSTEM.CONST>
0

>  <SCORE.SYSTEM.DIHEDRAL>
0

>  <SCORE.SYSTEM.SOLV>
0

>  <SCORE.SYSTEM.norm>
0

>  <SCORE.heavy>
27

>  <SCORE.norm>
-0.418317

>  <RMSD>
6.813

$$$$
ligand
 OpenBabel11021811503D
libRbt.so/2013.1/901 2013/11/27
 27 29  0  0  0  0  0  0  0  0999 V2000
   51.1481  -29.9932 -102.0528 N   0  0  0  0  0  0  0  0  0  0  0  0
   50.7600  -30.6241 -100.7863 C   0  0  2  0  0  0  0  0  0  0  0  0
   51.1406  -32.0894 -100.8143 C   0  0  0  0  0  0  0  0  0  0  0  0
   51.3199  -32.6978  -99.7701 O   0  0  0  0  0  0  0  0  0  0  0  0
   49.2489  -30.5087 -100.5443 C   0  0  0  0  0  0  0  0  0  0  0  0
   48.8399  -29.0543 -100.3589 C   0  0  0  0  0  0  0  0  0  0  0  0
   47.0226  -28.8078 -100.3449 S   0  0  2  0  0  0  0  0  0  0  0  0
   46.4166  -30.0745  -99.1840 C   0  0  0  0  0  0  0  0  0  0  0  0
   46.7151  -29.6675 -101.8860 C   0  0  0  0  0  0  0  0  0  0  0  0
   45.3351  -29.4383 -102.4427 C   0  0  1  0  0  0  0  0  0  0  0  0
   45.0857  -28.0225 -102.4348 O   0  0  0  0  0  0  0  0  0  0  0  0
   45.4867  -29.8295 -103.8575 C   0  0  1  0  0  0  0  0  0  0  0  0
   45.0297  -31.1692 -104.0358 O   0  0  0  0  0  0  0  0  0  0  0  0
   44.5656  -28.8779 -104.5562 C   0  0  1  0  0  0  0  0  0  0  0  0
   43.2268  -29.4140 -104.5968 O   0  0  0  0  0  0  0  0  0  0  0  0
   44.5844  -27.5656 -103.7162 C   0  0  2  0  0  0  0  0  0  0  0  0
   51.2384  -32.6810 -101.8752 O   0  0  0  0  0  0  0  0  0  0  0  0
   49.2764  -25.1110 -103.3182 N   0  0  0  0  0  0  0  0  0  0  0  0
   48.8266  -26.1603 -102.5870 C   0  0  0  0  0  0  0  0  0  0  0  0
   47.6216  -26.7221 -102.8181 N   0  0  0  0  0  0  0  0  0  0  0  0
   46.7855  -26.1986 -103.7294 C   0  0  0  0  0  0  0  0  0  0  0  0
   47.2071  -25.0553 -104.5025 C   0  0  0  0  0  0  0  0  0  0  0  0
   48.5108  -24.5272 -104.2643 C   0  0  0  0  0  0  0  0  0  0  0  0
   48.9812  -23.4415 -104.9747 N   0  0  0  0  0  0  0  0  0  0  0  0
   46.1990  -24.7348 -105.3222 N   0  0  0  0  0  0  0  0  0  0  0  0
   45.2126  -25.5566 -105.1195 C   0  0  0  0  0  0  0  0  0  0  0  0
   45.5179  -26.4869 -104.1536 N   0  0  0  0  0  0  0  0  0  0  0  0
  2  1  1  6  0  0  0
  2  3  1  0  0  0  0
  2  5  1  0  0  0  0
  3  4  1  0  0  0  0
  3 17  1  0  0  0  0
  5  6  1  0  0  0  0
  7  6  1  1  0  0  0
  7  8  1  0  0  0  0
  7  9  1  0  0  0  0
 10  9  1  1  0  0  0
 10 11  1  0  0  0  0
 10 12  1  0  0  0  0
 11 16  1  0  0  0  0
 12 13  1  1  0  0  0
 12 14  1  0  0  0  0
 14 15  1  1  0  0  0
 14 16  1  0  0  0  0
 16 27  1  6  0  0  0
 18 19  2  0  0  0  0
 18 23  1  0  0  0  0
 19 20  1  0  0  0  0
 20 21  2  0  0  0  0
 21 22  1  0  0  0  0
 21 27  1  0  0  0  0
 22 23  2  0  0  0  0
 22 25  1  0  0  0  0
 23 24  1  0  0  0  0
 25 26  2  0  0  0  0
 26 27  1  0  0  0  0
M  END
>  <CHROM.1>
156.15814830,-65.26680492,170.37057326,48.32624557,-166.56172628,49.04335686
18.15019050,47.42748540,-28.44680126,-102.58933192,-1.00409635,-0.28660016
-0.43524283

>  <Name>
ligand

>  <RI>
0

>  <Rbt.Current_Directory>
/home/itssahil/PROJECTS/Mol_Feturizer/New_Systems/rnas/4L81

>  <Rbt.Executable>
rbdock ($Id: //depot/dev/client3/rdock/2013.1/src/exe/rbdock.cxx#4 $)

>  <Rbt.Library>
libRbt.so (2013.1, Build901 2013/11/27)

>  <Rbt.Parameter_File>
/export/apps/rDock/src/rDock_2013.1_src/data/scripts/dock_solv.prm

>  <Rbt.Receptor>
prm/pocket_docking_3.prm

>  <SCORE>
-17.3225

>  <SCORE.INTER>
-15.2851

>  <SCORE.INTER.CONST>
1

>  <SCORE.INTER.POLAR>
0

>  <SCORE.INTER.ROT>
7

>  <SCORE.INTER.SOLV>
10.9614

>  <SCORE.INTER.VDW>
-22.1105

>  <SCORE.INTER.norm>
-0.566114

>  <SCORE.INTRA>
-2.03744

>  <SCORE.INTRA.DIHEDRAL>
-3.10573

>  <SCORE.INTRA.DIHEDRAL.0>
8.34559

>  <SCORE.INTRA.POLAR>
0

>  <SCORE.INTRA.POLAR.0>
0

>  <SCORE.INTRA.REPUL>
0

>  <SCORE.INTRA.REPUL.0>
0

>  <SCORE.INTRA.SOLV>
-0.388142

>  <SCORE.INTRA.SOLV.lig_0>
-48.829

>  <SCORE.INTRA.VDW>
-0.290507

>  <SCORE.INTRA.VDW.0>
-1.77092

>  <SCORE.INTRA.norm>
-0.0754608

>  <SCORE.RESTR>
0

>  <SCORE.RESTR.CAVITY>
0

>  <SCORE.RESTR.norm>
0

>  <SCORE.SYSTEM>
0

>  <SCORE.SYSTEM.CONST>
0

>  <SCORE.SYSTEM.DIHEDRAL>
0

>  <SCORE.SYSTEM.SOLV>
0

>  <SCORE.SYSTEM.norm>
0

>  <SCORE.heavy>
27

>  <SCORE.norm>
-0.641575

>  <RMSD>
6.883

$$$$
ligand
 OpenBabel11021811503D
libRbt.so/2013.1/901 2013/11/27
 27 29  0  0  0  0  0  0  0  0999 V2000
   51.1709  -29.9505 -101.9800 N   0  0  0  0  0  0  0  0  0  0  0  0
   50.7509  -30.6395 -100.7546 C   0  0  2  0  0  0  0  0  0  0  0  0
   51.1112  -32.1070 -100.8513 C   0  0  0  0  0  0  0  0  0  0  0  0
   51.2026  -32.6466 -101.9436 O   0  0  0  0  0  0  0  0  0  0  0  0
   49.2374  -30.5139 -100.5335 C   0  0  0  0  0  0  0  0  0  0  0  0
   48.8386  -29.0588 -100.3324 C   0  0  0  0  0  0  0  0  0  0  0  0
   47.0232  -28.7995 -100.3169 S   0  0  2  0  0  0  0  0  0  0  0  0
   46.4090  -30.0625  -99.1563 C   0  0  0  0  0  0  0  0  0  0  0  0
   46.7085  -29.6561 -101.8583 C   0  0  0  0  0  0  0  0  0  0  0  0
   45.3248  -29.4284 -102.4065 C   0  0  1  0  0  0  0  0  0  0  0  0
   45.0779  -28.0121 -102.4069 O   0  0  0  0  0  0  0  0  0  0  0  0
   45.4653  -29.8301 -103.8195 C   0  0  1  0  0  0  0  0  0  0  0  0
   45.0046  -31.1702 -103.9847 O   0  0  0  0  0  0  0  0  0  0  0  0
   44.5407  -28.8819 -104.5182 C   0  0  1  0  0  0  0  0  0  0  0  0
   43.2007  -29.4158 -104.5451 O   0  0  0  0  0  0  0  0  0  0  0  0
   44.5680  -27.5636 -103.6879 C   0  0  2  0  0  0  0  0  0  0  0  0
   51.3449  -32.7524  -99.8444 O   0  0  0  0  0  0  0  0  0  0  0  0
   49.2476  -25.0829 -103.3068 N   0  0  0  0  0  0  0  0  0  0  0  0
   48.7971  -26.1197 -102.5584 C   0  0  0  0  0  0  0  0  0  0  0  0
   47.5959  -26.6907 -102.7865 N   0  0  0  0  0  0  0  0  0  0  0  0
   46.7638  -26.1882 -103.7131 C   0  0  0  0  0  0  0  0  0  0  0  0
   47.1860  -25.0584 -104.5055 C   0  0  0  0  0  0  0  0  0  0  0  0
   48.4860  -24.5205 -104.2689 C   0  0  0  0  0  0  0  0  0  0  0  0
   48.9569  -23.4469 -104.9972 N   0  0  0  0  0  0  0  0  0  0  0  0
   46.1821  -24.7578 -105.3377 N   0  0  0  0  0  0  0  0  0  0  0  0
   45.1976  -25.5795 -105.1256 C   0  0  0  0  0  0  0  0  0  0  0  0
   45.5001  -26.4898 -104.1399 N   0  0  0  0  0  0  0  0  0  0  0  0
  2  1  1  6  0  0  0
  2  3  1  0  0  0  0
  2  5  1  0  0  0  0
  3  4  1  0  0  0  0
  3 17  1  0  0  0  0
  5  6  1  0  0  0  0
  7  6  1  1  0  0  0
  7  8  1  0  0  0  0
  7  9  1  0  0  0  0
 10  9  1  1  0  0  0
 10 11  1  0  0  0  0
 10 12  1  0  0  0  0
 11 16  1  0  0  0  0
 12 13  1  1  0  0  0
 12 14  1  0  0  0  0
 14 15  1  1  0  0  0
 14 16  1  0  0  0  0
 16 27  1  6  0  0  0
 18 19  2  0  0  0  0
 18 23  1  0  0  0  0
 19 20  1  0  0  0  0
 20 21  2  0  0  0  0
 21 22  1  0  0  0  0
 21 27  1  0  0  0  0
 22 23  2  0  0  0  0
 22 25  1  0  0  0  0
 23 24  1  0  0  0  0
 25 26  2  0  0  0  0
 26 27  1  0  0  0  0
M  END
>  <CHROM.1>
-26.59944502,-63.15180514,171.22474864,48.92876426,-167.16874532,49.64423378
17.04292933,47.41332237,-28.44339777,-102.57526890,-1.00491231,-0.28013271
-0.43556964

>  <Name>
ligand

>  <RI>
0

>  <Rbt.Current_Directory>
/home/itssahil/PROJECTS/Mol_Feturizer/New_Systems/rnas/4L81

>  <Rbt.Executable>
rbdock ($Id: //depot/dev/client3/rdock/2013.1/src/exe/rbdock.cxx#4 $)

>  <Rbt.Library>
libRbt.so (2013.1, Build901 2013/11/27)

>  <Rbt.Parameter_File>
/export/apps/rDock/src/rDock_2013.1_src/data/scripts/dock_solv.prm

>  <Rbt.Receptor>
prm/pocket_docking_3.prm

>  <SCORE>
-17.3031

>  <SCORE.INTER>
-15.26

>  <SCORE.INTER.CONST>
1

>  <SCORE.INTER.POLAR>
0

>  <SCORE.INTER.ROT>
7

>  <SCORE.INTER.SOLV>
11.1704

>  <SCORE.INTER.VDW>
-22.1635

>  <SCORE.INTER.norm>
-0.565186

>  <SCORE.INTRA>
-2.04311

>  <SCORE.INTRA.DIHEDRAL>
-3.20908

>  <SCORE.INTRA.DIHEDRAL.0>
8.34559

>  <SCORE.INTRA.POLAR>
0

>  <SCORE.INTRA.POLAR.0>
0

>  <SCORE.INTRA.REPUL>
0

>  <SCORE.INTRA.REPUL.0>
0

>  <SCORE.INTRA.SOLV>
-0.382118

>  <SCORE.INTRA.SOLV.lig_0>
-48.829

>  <SCORE.INTRA.VDW>
-0.247512

>  <SCORE.INTRA.VDW.0>
-1.77092

>  <SCORE.INTRA.norm>
-0.0756708

>  <SCORE.RESTR>
0

>  <SCORE.RESTR.CAVITY>
0

>  <SCORE.RESTR.norm>
0

>  <SCORE.SYSTEM>
0

>  <SCORE.SYSTEM.CONST>
0

>  <SCORE.SYSTEM.DIHEDRAL>
0

>  <SCORE.SYSTEM.SOLV>
0

>  <SCORE.SYSTEM.norm>
0

>  <SCORE.heavy>
27

>  <SCORE.norm>
-0.640857

>  <RMSD>
6.883

$$$$
ligand
 OpenBabel11021811503D
libRbt.so/2013.1/901 2013/11/27
 27 29  0  0  0  0  0  0  0  0999 V2000
   49.2218  -29.2606 -100.1307 N   0  0  0  0  0  0  0  0  0  0  0  0
   48.0635  -30.1520 -100.2585 C   0  0  2  0  0  0  0  0  0  0  0  0
   47.9904  -30.6856 -101.6736 C   0  0  0  0  0  0  0  0  0  0  0  0
   47.5930  -31.8220 -101.8820 O   0  0  0  0  0  0  0  0  0  0  0  0
   46.7548  -29.4175  -99.9372 C   0  0  0  0  0  0  0  0  0  0  0  0
   45.5610  -30.3508 -100.0806 C   0  0  0  0  0  0  0  0  0  0  0  0
   44.2551  -29.6936 -101.1880 S   0  0  2  0  0  0  0  0  0  0  0  0
   43.1733  -31.1280 -101.4908 C   0  0  0  0  0  0  0  0  0  0  0  0
   45.2394  -29.7621 -102.6831 C   0  0  0  0  0  0  0  0  0  0  0  0
   44.4593  -29.4650 -103.9361 C   0  0  1  0  0  0  0  0  0  0  0  0
   44.1010  -28.0728 -103.9132 O   0  0  0  0  0  0  0  0  0  0  0  0
   45.4753  -29.6192 -104.9952 C   0  0  1  0  0  0  0  0  0  0  0  0
   45.3696  -30.9184 -105.5750 O   0  0  0  0  0  0  0  0  0  0  0  0
   45.0636  -28.5798 -105.9914 C   0  0  1  0  0  0  0  0  0  0  0  0
   44.0895  -29.1209 -106.9077 O   0  0  0  0  0  0  0  0  0  0  0  0
   44.4271  -27.4211 -105.1666 C   0  0  2  0  0  0  0  0  0  0  0  0
   48.2950  -29.9765 -102.6167 O   0  0  0  0  0  0  0  0  0  0  0  0
   46.8840  -22.9143 -106.5269 N   0  0  0  0  0  0  0  0  0  0  0  0
   46.1245  -23.7135 -107.3158 C   0  0  0  0  0  0  0  0  0  0  0  0
   45.5171  -24.8174 -106.8326 N   0  0  0  0  0  0  0  0  0  0  0  0
   45.7197  -25.2109 -105.5647 C   0  0  0  0  0  0  0  0  0  0  0  0
   46.5546  -24.4120 -104.7004 C   0  0  0  0  0  0  0  0  0  0  0  0
   47.1325  -23.2229 -105.2365 C   0  0  0  0  0  0  0  0  0  0  0  0
   47.9331  -22.4075 -104.4627 N   0  0  0  0  0  0  0  0  0  0  0  0
   46.5941  -25.0215 -103.5097 N   0  0  0  0  0  0  0  0  0  0  0  0
   45.8800  -26.1060 -103.5667 C   0  0  0  0  0  0  0  0  0  0  0  0
   45.3092  -26.2727 -104.8070 N   0  0  0  0  0  0  0  0  0  0  0  0
  2  1  1  6  0  0  0
  2  3  1  0  0  0  0
  2  5  1  0  0  0  0
  3  4  1  0  0  0  0
  3 17  1  0  0  0  0
  5  6  1  0  0  0  0
  7  6  1  1  0  0  0
  7  8  1  0  0  0  0
  7  9  1  0  0  0  0
 10  9  1  1  0  0  0
 10 11  1  0  0  0  0
 10 12  1  0  0  0  0
 11 16  1  0  0  0  0
 12 13  1  6  0  0  0
 12 14  1  0  0  0  0
 14 15  1  6  0  0  0
 14 16  1  0  0  0  0
 16 27  1  1  0  0  0
 18 19  2  0  0  0  0
 18 23  1  0  0  0  0
 19 20  1  0  0  0  0
 20 21  2  0  0  0  0
 21 22  1  0  0  0  0
 21 27  1  0  0  0  0
 22 23  2  0  0  0  0
 22 25  1  0  0  0  0
 23 24  1  0  0  0  0
 25 26  2  0  0  0  0
 26 27  1  0  0  0  0
M  END
>  <CHROM.1>
145.18042523,179.69908578,-126.58301998,167.07223603,172.08881356,69.10423174
-167.85702361,45.92602596,-27.96746630,-103.59283390,-1.59535921,-0.81031983
-0.63455741

>  <Name>
ligand

>  <RI>
0

>  <Rbt.Current_Directory>
/home/itssahil/PROJECTS/Mol_Feturizer/New_Systems/rnas/4L81

>  <Rbt.Executable>
rbdock ($Id: //depot/dev/client3/rdock/2013.1/src/exe/rbdock.cxx#4 $)

>  <Rbt.Library>
libRbt.so (2013.1, Build901 2013/11/27)

>  <Rbt.Parameter_File>
/export/apps/rDock/src/rDock_2013.1_src/data/scripts/dock_solv.prm

>  <Rbt.Receptor>
prm/pocket_docking_5.prm

>  <SCORE>
-15.2728

>  <SCORE.INTER>
-14.4174

>  <SCORE.INTER.CONST>
1

>  <SCORE.INTER.POLAR>
0

>  <SCORE.INTER.ROT>
7

>  <SCORE.INTER.SOLV>
17.316

>  <SCORE.INTER.VDW>
-23.6503

>  <SCORE.INTER.norm>
-0.533979

>  <SCORE.INTRA>
-0.855411

>  <SCORE.INTRA.DIHEDRAL>
0.542326

>  <SCORE.INTRA.DIHEDRAL.0>
8.34559

>  <SCORE.INTRA.POLAR>
0

>  <SCORE.INTRA.POLAR.0>
0

>  <SCORE.INTRA.REPUL>
0

>  <SCORE.INTRA.REPUL.0>
0

>  <SCORE.INTRA.SOLV>
-1.28985

>  <SCORE.INTRA.SOLV.lig_0>
-48.829

>  <SCORE.INTRA.VDW>
-0.481649

>  <SCORE.INTRA.VDW.0>
-1.77092

>  <SCORE.INTRA.norm>
-0.0316819

>  <SCORE.RESTR>
0

>  <SCORE.RESTR.CAVITY>
0

>  <SCORE.RESTR.norm>
0

>  <SCORE.SYSTEM>
0

>  <SCORE.SYSTEM.CONST>
0

>  <SCORE.SYSTEM.DIHEDRAL>
0

>  <SCORE.SYSTEM.SOLV>
0

>  <SCORE.SYSTEM.norm>
0

>  <SCORE.heavy>
27

>  <SCORE.norm>
-0.565661

>  <RMSD>
6.895

$$$$
ligand
 OpenBabel11021811503D
libRbt.so/2013.1/901 2013/11/27
 27 29  0  0  0  0  0  0  0  0999 V2000
   50.8193  -30.1061 -102.2771 N   0  0  0  0  0  0  0  0  0  0  0  0
   50.2504  -31.4074 -101.9086 C   0  0  2  0  0  0  0  0  0  0  0  0
   51.2905  -32.2222 -101.1690 C   0  0  0  0  0  0  0  0  0  0  0  0
   51.2296  -32.3392  -99.9544 O   0  0  0  0  0  0  0  0  0  0  0  0
   49.7966  -32.1902 -103.1482 C   0  0  0  0  0  0  0  0  0  0  0  0
   48.7960  -31.3822 -103.9623 C   0  0  0  0  0  0  0  0  0  0  0  0
   48.1999  -32.2604 -105.4579 S   0  0  2  0  0  0  0  0  0  0  0  0
   49.6460  -32.2719 -106.5661 C   0  0  0  0  0  0  0  0  0  0  0  0
   47.3253  -30.8587 -106.1500 C   0  0  0  0  0  0  0  0  0  0  0  0
   46.0534  -30.5176 -105.4201 C   0  0  1  0  0  0  0  0  0  0  0  0
   46.3844  -29.6056 -104.3592 O   0  0  0  0  0  0  0  0  0  0  0  0
   45.3021  -29.7389 -106.4235 C   0  0  1  0  0  0  0  0  0  0  0  0
   44.3636  -30.5868 -107.0836 O   0  0  0  0  0  0  0  0  0  0  0  0
   44.5791  -28.7360 -105.5788 C   0  0  1  0  0  0  0  0  0  0  0  0
   43.3223  -29.2775 -105.1221 O   0  0  0  0  0  0  0  0  0  0  0  0
   45.5066  -28.4517 -104.3594 C   0  0  2  0  0  0  0  0  0  0  0  0
   52.1755  -32.7941 -101.7810 O   0  0  0  0  0  0  0  0  0  0  0  0
   49.7365  -26.0303 -106.4673 N   0  0  0  0  0  0  0  0  0  0  0  0
   49.2884  -27.2842 -106.7220 C   0  0  0  0  0  0  0  0  0  0  0  0
   48.1680  -27.7683 -106.1463 N   0  0  0  0  0  0  0  0  0  0  0  0
   47.5045  -27.0483 -105.2271 C   0  0  0  0  0  0  0  0  0  0  0  0
   47.9700  -25.7234 -104.8947 C   0  0  0  0  0  0  0  0  0  0  0  0
   49.1268  -25.2294 -105.5679 C   0  0  0  0  0  0  0  0  0  0  0  0
   49.6202  -23.9675 -105.3054 N   0  0  0  0  0  0  0  0  0  0  0  0
   47.1451  -25.2335 -103.9618 N   0  0  0  0  0  0  0  0  0  0  0  0
   46.2383  -26.1243 -103.6903 C   0  0  0  0  0  0  0  0  0  0  0  0
   46.4034  -27.2623 -104.4449 N   0  0  0  0  0  0  0  0  0  0  0  0
  2  1  1  6  0  0  0
  2  3  1  0  0  0  0
  2  5  1  0  0  0  0
  3  4  1  0  0  0  0
  3 17  1  0  0  0  0
  5  6  1  0  0  0  0
  7  6  1  1  0  0  0
  7  8  1  0  0  0  0
  7  9  1  0  0  0  0
 10  9  1  6  0  0  0
 10 11  1  0  0  0  0
 10 12  1  0  0  0  0
 11 16  1  0  0  0  0
 12 13  1  1  0  0  0
 12 14  1  0  0  0  0
 14 15  1  1  0  0  0
 14 16  1  0  0  0  0
 16 27  1  6  0  0  0
 18 19  2  0  0  0  0
 18 23  1  0  0  0  0
 19 20  1  0  0  0  0
 20 21  2  0  0  0  0
 21 22  1  0  0  0  0
 21 27  1  0  0  0  0
 22 23  2  0  0  0  0
 22 25  1  0  0  0  0
 23 24  1  0  0  0  0
 25 26  2  0  0  0  0
 26 27  1  0  0  0  0
M  END
>  <CHROM.1>
103.20015162,-56.55186651,-179.65999386,-70.66033516,-72.82206519,88.38460926
43.42260093,48.01300730,-29.37470478,-104.58306675,-0.87499365,-0.52887908
-0.14353061

>  <Name>
ligand

>  <RI>
0

>  <Rbt.Current_Directory>
/home/itssahil/PROJECTS/Mol_Feturizer/New_Systems/rnas/4L81

>  <Rbt.Executable>
rbdock ($Id: //depot/dev/client3/rdock/2013.1/src/exe/rbdock.cxx#4 $)

>  <Rbt.Library>
libRbt.so (2013.1, Build901 2013/11/27)

>  <Rbt.Parameter_File>
/export/apps/rDock/src/rDock_2013.1_src/data/scripts/dock_solv.prm

>  <Rbt.Receptor>
prm/pocket_docking_5.prm

>  <SCORE>
-8.12846

>  <SCORE.INTER>
-5.54266

>  <SCORE.INTER.CONST>
1

>  <SCORE.INTER.POLAR>
0

>  <SCORE.INTER.ROT>
7

>  <SCORE.INTER.SOLV>
9.8559

>  <SCORE.INTER.VDW>
-15.2471

>  <SCORE.INTER.norm>
-0.205284

>  <SCORE.INTRA>
-2.58581

>  <SCORE.INTRA.DIHEDRAL>
-2.55697

>  <SCORE.INTRA.DIHEDRAL.0>
8.34559

>  <SCORE.INTRA.POLAR>
0

>  <SCORE.INTRA.POLAR.0>
0

>  <SCORE.INTRA.REPUL>
0

>  <SCORE.INTRA.REPUL.0>
0

>  <SCORE.INTRA.SOLV>
-0.548296

>  <SCORE.INTRA.SOLV.lig_0>
-48.829

>  <SCORE.INTRA.VDW>
-1.03317

>  <SCORE.INTRA.VDW.0>
-1.77092

>  <SCORE.INTRA.norm>
-0.0957706

>  <SCORE.RESTR>
0

>  <SCORE.RESTR.CAVITY>
0

>  <SCORE.RESTR.norm>
0

>  <SCORE.SYSTEM>
0

>  <SCORE.SYSTEM.CONST>
0

>  <SCORE.SYSTEM.DIHEDRAL>
0

>  <SCORE.SYSTEM.SOLV>
0

>  <SCORE.SYSTEM.norm>
0

>  <SCORE.heavy>
27

>  <SCORE.norm>
-0.301054

>  <RMSD>
6.961

$$$$
ligand
 OpenBabel11021811503D
libRbt.so/2013.1/901 2013/11/27
 27 29  0  0  0  0  0  0  0  0999 V2000
   46.9262  -29.4067 -100.2503 N   0  0  0  0  0  0  0  0  0  0  0  0
   46.1482  -28.4624 -101.0600 C   0  0  2  0  0  0  0  0  0  0  0  0
   44.8055  -29.0745 -101.3995 C   0  0  0  0  0  0  0  0  0  0  0  0
   43.9393  -29.1695 -100.5431 O   0  0  0  0  0  0  0  0  0  0  0  0
   46.8773  -28.1115 -102.3641 C   0  0  0  0  0  0  0  0  0  0  0  0
   46.2043  -26.9379 -103.0617 C   0  0  0  0  0  0  0  0  0  0  0  0
   46.8829  -26.6002 -104.7316 S   0  0  2  0  0  0  0  0  0  0  0  0
   45.8190  -25.2694 -105.3771 C   0  0  0  0  0  0  0  0  0  0  0  0
   46.0985  -27.9998 -105.5282 C   0  0  0  0  0  0  0  0  0  0  0  0
   46.7241  -28.3764 -106.8449 C   0  0  1  0  0  0  0  0  0  0  0  0
   46.8234  -27.1848 -107.6431 O   0  0  0  0  0  0  0  0  0  0  0  0
   48.1016  -28.7381 -106.4582 C   0  0  1  0  0  0  0  0  0  0  0  0
   48.2055  -30.1547 -106.3248 O   0  0  0  0  0  0  0  0  0  0  0  0
   48.9000  -28.2757 -107.6375 C   0  0  1  0  0  0  0  0  0  0  0  0
   48.9570  -29.3100 -108.6416 O   0  0  0  0  0  0  0  0  0  0  0  0
   48.1521  -27.0310 -108.2025 C   0  0  2  0  0  0  0  0  0  0  0  0
   44.5666  -29.4464 -102.5351 O   0  0  0  0  0  0  0  0  0  0  0  0
   51.2308  -24.0554 -105.0615 N   0  0  0  0  0  0  0  0  0  0  0  0
   51.1167  -25.4062 -105.0692 C   0  0  0  0  0  0  0  0  0  0  0  0
   50.3237  -26.0467 -105.9534 N   0  0  0  0  0  0  0  0  0  0  0  0
   49.5477  -25.3549 -106.8035 C   0  0  0  0  0  0  0  0  0  0  0  0
   49.6064  -23.9130 -106.8019 C   0  0  0  0  0  0  0  0  0  0  0  0
   50.4996  -23.2783 -105.8883 C   0  0  0  0  0  0  0  0  0  0  0  0
   50.6129  -21.9036 -105.8405 N   0  0  0  0  0  0  0  0  0  0  0  0
   48.7428  -23.4779 -107.7269 N   0  0  0  0  0  0  0  0  0  0  0  0
   48.1641  -24.5024 -108.2792 C   0  0  0  0  0  0  0  0  0  0  0  0
   48.6250  -25.6880 -107.7562 N   0  0  0  0  0  0  0  0  0  0  0  0
  2  1  1  6  0  0  0
  2  3  1  0  0  0  0
  2  5  1  0  0  0  0
  3  4  1  0  0  0  0
  3 17  1  0  0  0  0
  5  6  1  0  0  0  0
  7  6  1  1  0  0  0
  7  8  1  0  0  0  0
  7  9  1  0  0  0  0
 10  9  1  1  0  0  0
 10 11  1  0  0  0  0
 10 12  1  0  0  0  0
 11 16  1  0  0  0  0
 12 13  1  6  0  0  0
 12 14  1  0  0  0  0
 14 15  1  6  0  0  0
 14 16  1  0  0  0  0
 16 27  1  1  0  0  0
 18 19  2  0  0  0  0
 18 23  1  0  0  0  0
 19 20  1  0  0  0  0
 20 21  2  0  0  0  0
 21 22  1  0  0  0  0
 21 27  1  0  0  0  0
 22 23  2  0  0  0  0
 22 25  1  0  0  0  0
 23 24  1  0  0  0  0
 25 26  2  0  0  0  0
 26 27  1  0  0  0  0
M  END
>  <CHROM.1>
73.69726890,-168.88126054,-172.46347880,175.32073405,-161.55564785,-50.48227466
105.86230735,47.75771731,-26.85911998,-105.27219734,-2.84825839,-0.97765692
-2.10363725

>  <Name>
ligand

>  <RI>
0

>  <Rbt.Current_Directory>
/home/itssahil/PROJECTS/Mol_Feturizer/New_Systems/rnas/4L81

>  <Rbt.Executable>
rbdock ($Id: //depot/dev/client3/rdock/2013.1/src/exe/rbdock.cxx#4 $)

>  <Rbt.Library>
libRbt.so (2013.1, Build901 2013/11/27)

>  <Rbt.Parameter_File>
/export/apps/rDock/src/rDock_2013.1_src/data/scripts/dock_solv.prm

>  <Rbt.Receptor>
prm/pocket_docking_5.prm

>  <SCORE>
-11.5388

>  <SCORE.INTER>
-9.01906

>  <SCORE.INTER.CONST>
1

>  <SCORE.INTER.POLAR>
0

>  <SCORE.INTER.ROT>
7

>  <SCORE.INTER.SOLV>
11.2041

>  <SCORE.INTER.VDW>
-18.0141

>  <SCORE.INTER.norm>
-0.334039

>  <SCORE.INTRA>
-2.51974

>  <SCORE.INTRA.DIHEDRAL>
-2.20983

>  <SCORE.INTRA.DIHEDRAL.0>
8.34559

>  <SCORE.INTRA.POLAR>
0

>  <SCORE.INTRA.POLAR.0>
0

>  <SCORE.INTRA.REPUL>
0

>  <SCORE.INTRA.REPUL.0>
0

>  <SCORE.INTRA.SOLV>
-0.987184

>  <SCORE.INTRA.SOLV.lig_0>
-48.829

>  <SCORE.INTRA.VDW>
-0.921234

>  <SCORE.INTRA.VDW.0>
-1.77092

>  <SCORE.INTRA.norm>
-0.0933237

>  <SCORE.RESTR>
0

>  <SCORE.RESTR.CAVITY>
0

>  <SCORE.RESTR.norm>
0

>  <SCORE.SYSTEM>
0

>  <SCORE.SYSTEM.CONST>
0

>  <SCORE.SYSTEM.DIHEDRAL>
0

>  <SCORE.SYSTEM.SOLV>
0

>  <SCORE.SYSTEM.norm>
0

>  <SCORE.heavy>
27

>  <SCORE.norm>
-0.427363

>  <RMSD>
7.063

$$$$
ligand
 OpenBabel11021811503D
libRbt.so/2013.1/901 2013/11/27
 27 29  0  0  0  0  0  0  0  0999 V2000
   50.5012  -29.5012 -101.7468 N   0  0  0  0  0  0  0  0  0  0  0  0
   50.3122  -30.4552 -100.6482 C   0  0  2  0  0  0  0  0  0  0  0  0
   50.6587  -31.8500 -101.1250 C   0  0  0  0  0  0  0  0  0  0  0  0
   51.2959  -32.6046 -100.4058 O   0  0  0  0  0  0  0  0  0  0  0  0
   48.8620  -30.4488 -100.1457 C   0  0  0  0  0  0  0  0  0  0  0  0
   47.8848  -30.4540 -101.3127 C   0  0  0  0  0  0  0  0  0  0  0  0
   46.4872  -29.2869 -101.0940 S   0  0  2  0  0  0  0  0  0  0  0  0
   45.2154  -30.2787 -100.2464 C   0  0  0  0  0  0  0  0  0  0  0  0
   45.8781  -29.4228 -102.7731 C   0  0  0  0  0  0  0  0  0  0  0  0
   44.8894  -28.3508 -103.1475 C   0  0  1  0  0  0  0  0  0  0  0  0
   45.4286  -27.0865 -102.7261 O   0  0  0  0  0  0  0  0  0  0  0  0
   44.9441  -28.3596 -104.6222 C   0  0  1  0  0  0  0  0  0  0  0  0
   43.8660  -29.1394 -105.1370 O   0  0  0  0  0  0  0  0  0  0  0  0
   44.7383  -26.9158 -104.9615 C   0  0  1  0  0  0  0  0  0  0  0  0
   43.3298  -26.6189 -105.0591 O   0  0  0  0  0  0  0  0  0  0  0  0
   45.3698  -26.1041 -103.7908 C   0  0  2  0  0  0  0  0  0  0  0  0
   50.2773  -32.2420 -102.2139 O   0  0  0  0  0  0  0  0  0  0  0  0
   50.0730  -26.4548 -106.2311 N   0  0  0  0  0  0  0  0  0  0  0  0
   48.9846  -27.2419 -106.4148 C   0  0  0  0  0  0  0  0  0  0  0  0
   47.8279  -27.0188 -105.7565 N   0  0  0  0  0  0  0  0  0  0  0  0
   47.7452  -26.0551 -104.8249 C   0  0  0  0  0  0  0  0  0  0  0  0
   48.8929  -25.2193 -104.5672 C   0  0  0  0  0  0  0  0  0  0  0  0
   50.0785  -25.4541 -105.3252 C   0  0  0  0  0  0  0  0  0  0  0  0
   51.2093  -24.6858 -105.1368 N   0  0  0  0  0  0  0  0  0  0  0  0
   48.5492  -24.3561 -103.6041 N   0  0  0  0  0  0  0  0  0  0  0  0
   47.3209  -24.5881 -103.2480 C   0  0  0  0  0  0  0  0  0  0  0  0
   46.7695  -25.6200 -103.9711 N   0  0  0  0  0  0  0  0  0  0  0  0
  2  1  1  6  0  0  0
  2  3  1  0  0  0  0
  2  5  1  0  0  0  0
  3  4  1  0  0  0  0
  3 17  1  0  0  0  0
  5  6  1  0  0  0  0
  7  6  1  6  0  0  0
  7  8  1  0  0  0  0
  7  9  1  0  0  0  0
 10  9  1  1  0  0  0
 10 11  1  0  0  0  0
 10 12  1  0  0  0  0
 11 16  1  0  0  0  0
 12 13  1  6  0  0  0
 12 14  1  0  0  0  0
 14 15  1  1  0  0  0
 14 16  1  0  0  0  0
 16 27  1  6  0  0  0
 18 19  2  0  0  0  0
 18 23  1  0  0  0  0
 19 20  1  0  0  0  0
 20 21  2  0  0  0  0
 21 22  1  0  0  0  0
 21 27  1  0  0  0  0
 22 23  2  0  0  0  0
 22 25  1  0  0  0  0
 23 24  1  0  0  0  0
 25 26  2  0  0  0  0
 26 27  1  0  0  0  0
M  END
>  <CHROM.1>
138.19238379,44.70959167,-136.34773469,-89.87145308,-166.03560179,47.15623115
93.13230953,47.57969171,-28.13674680,-103.19462743,-1.16883555,-0.00560215
-0.64784680

>  <Name>
ligand

>  <RI>
0

>  <Rbt.Current_Directory>
/home/itssahil/PROJECTS/Mol_Feturizer/New_Systems/rnas/4L81

>  <Rbt.Executable>
rbdock ($Id: //depot/dev/client3/rdock/2013.1/src/exe/rbdock.cxx#4 $)

>  <Rbt.Library>
libRbt.so (2013.1, Build901 2013/11/27)

>  <Rbt.Parameter_File>
/export/apps/rDock/src/rDock_2013.1_src/data/scripts/dock_solv.prm

>  <Rbt.Receptor>
prm/pocket_docking_4.prm

>  <SCORE>
-10.4748

>  <SCORE.INTER>
-11.2855

>  <SCORE.INTER.CONST>
1

>  <SCORE.INTER.POLAR>
0

>  <SCORE.INTER.ROT>
7

>  <SCORE.INTER.SOLV>
18.5676

>  <SCORE.INTER.VDW>
-21.9795

>  <SCORE.INTER.norm>
-0.417981

>  <SCORE.INTRA>
0.810684

>  <SCORE.INTRA.DIHEDRAL>
3.1762

>  <SCORE.INTRA.DIHEDRAL.0>
8.34559

>  <SCORE.INTRA.POLAR>
0

>  <SCORE.INTRA.POLAR.0>
0

>  <SCORE.INTRA.REPUL>
0

>  <SCORE.INTRA.REPUL.0>
0

>  <SCORE.INTRA.SOLV>
-0.0967442

>  <SCORE.INTRA.SOLV.lig_0>
-48.829

>  <SCORE.INTRA.VDW>
-0.729043

>  <SCORE.INTRA.VDW.0>
-1.77092

>  <SCORE.INTRA.norm>
0.0300253

>  <SCORE.RESTR>
0

>  <SCORE.RESTR.CAVITY>
0

>  <SCORE.RESTR.norm>
0

>  <SCORE.SYSTEM>
0

>  <SCORE.SYSTEM.CONST>
0

>  <SCORE.SYSTEM.DIHEDRAL>
0

>  <SCORE.SYSTEM.SOLV>
0

>  <SCORE.SYSTEM.norm>
0

>  <SCORE.heavy>
27

>  <SCORE.norm>
-0.387955

>  <RMSD>
7.075

$$$$
ligand
 OpenBabel11021811503D
libRbt.so/2013.1/901 2013/11/27
 27 29  0  0  0  0  0  0  0  0999 V2000
   51.9459  -30.9795 -102.9452 N   0  0  0  0  0  0  0  0  0  0  0  0
   51.2835  -31.8960 -102.0104 C   0  0  2  0  0  0  0  0  0  0  0  0
   51.0112  -33.2146 -102.7032 C   0  0  0  0  0  0  0  0  0  0  0  0
   50.0714  -33.3197 -103.4768 O   0  0  0  0  0  0  0  0  0  0  0  0
   49.9545  -31.3167 -101.5068 C   0  0  0  0  0  0  0  0  0  0  0  0
   50.1768  -29.9868 -100.8005 C   0  0  0  0  0  0  0  0  0  0  0  0
   48.6210  -29.0784 -100.4575 S   0  0  2  0  0  0  0  0  0  0  0  0
   47.5484  -30.3251  -99.6733 C   0  0  0  0  0  0  0  0  0  0  0  0
   47.9875  -29.1736 -102.1304 C   0  0  0  0  0  0  0  0  0  0  0  0
   46.5446  -28.7626 -102.2562 C   0  0  1  0  0  0  0  0  0  0  0  0
   46.4913  -27.3261 -102.2338 O   0  0  0  0  0  0  0  0  0  0  0  0
   46.2089  -29.1733 -103.6332 C   0  0  1  0  0  0  0  0  0  0  0  0
   45.5530  -30.4400 -103.6090 O   0  0  0  0  0  0  0  0  0  0  0  0
   45.2481  -28.1082 -104.0627 C   0  0  1  0  0  0  0  0  0  0  0  0
   43.9033  -28.4601 -103.6766 O   0  0  0  0  0  0  0  0  0  0  0  0
   45.6873  -26.8086 -103.3237 C   0  0  2  0  0  0  0  0  0  0  0  0
   51.7450  -34.1702 -102.5208 O   0  0  0  0  0  0  0  0  0  0  0  0
   50.4232  -24.4926 -103.9609 N   0  0  0  0  0  0  0  0  0  0  0  0
   50.0537  -25.3688 -102.9947 C   0  0  0  0  0  0  0  0  0  0  0  0
   48.8225  -25.9205 -102.9697 N   0  0  0  0  0  0  0  0  0  0  0  0
   47.8872  -25.5482 -103.8586 C   0  0  0  0  0  0  0  0  0  0  0  0
   48.2246  -24.5866 -104.8803 C   0  0  0  0  0  0  0  0  0  0  0  0
   49.5543  -24.0701 -104.9036 C   0  0  0  0  0  0  0  0  0  0  0  0
   49.9473  -23.1550 -105.8591 N   0  0  0  0  0  0  0  0  0  0  0  0
   47.1274  -24.3901 -105.6208 N   0  0  0  0  0  0  0  0  0  0  0  0
   46.1632  -25.1232 -105.1493 C   0  0  0  0  0  0  0  0  0  0  0  0
   46.5734  -25.8656 -104.0666 N   0  0  0  0  0  0  0  0  0  0  0  0
  2  1  1  6  0  0  0
  2  3  1  0  0  0  0
  2  5  1  0  0  0  0
  3  4  1  0  0  0  0
  3 17  1  0  0  0  0
  5  6  1  0  0  0  0
  7  6  1  6  0  0  0
  7  8  1  0  0  0  0
  7  9  1  0  0  0  0
 10  9  1  6  0  0  0
 10 11  1  0  0  0  0
 10 12  1  0  0  0  0
 11 16  1  0  0  0  0
 12 13  1  1  0  0  0
 12 14  1  0  0  0  0
 14 15  1  1  0  0  0
 14 16  1  0  0  0  0
 16 27  1  6  0  0  0
 18 19  2  0  0  0  0
 18 23  1  0  0  0  0
 19 20  1  0  0  0  0
 20 21  2  0  0  0  0
 21 22  1  0  0  0  0
 21 27  1  0  0  0  0
 22 23  2  0  0  0  0
 22 25  1  0  0  0  0
 23 24  1  0  0  0  0
 25 26  2  0  0  0  0
 26 27  1  0  0  0  0
M  END
>  <CHROM.1>
-77.94185863,-59.20850261,168.87958723,49.45357685,168.53365768,78.21040666
2.52407746,48.31827651,-28.34747247,-102.99587043,-1.23917628,0.02567552
-0.34845167

>  <Name>
ligand

>  <RI>
0

>  <Rbt.Current_Directory>
/home/itssahil/PROJECTS/Mol_Feturizer/New_Systems/rnas/4L81

>  <Rbt.Executable>
rbdock ($Id: //depot/dev/client3/rdock/2013.1/src/exe/rbdock.cxx#4 $)

>  <Rbt.Library>
libRbt.so (2013.1, Build901 2013/11/27)

>  <Rbt.Parameter_File>
/export/apps/rDock/src/rDock_2013.1_src/data/scripts/dock_solv.prm

>  <Rbt.Receptor>
prm/pocket_docking_4.prm

>  <SCORE>
-10.1518

>  <SCORE.INTER>
-9.11952

>  <SCORE.INTER.CONST>
1

>  <SCORE.INTER.POLAR>
0

>  <SCORE.INTER.ROT>
7

>  <SCORE.INTER.SOLV>
12.4636

>  <SCORE.INTER.VDW>
-18.5009

>  <SCORE.INTER.norm>
-0.33776

>  <SCORE.INTRA>
-1.05562

>  <SCORE.INTRA.DIHEDRAL>
-3.5419

>  <SCORE.INTRA.DIHEDRAL.0>
8.34559

>  <SCORE.INTRA.POLAR>
0

>  <SCORE.INTRA.POLAR.0>
0

>  <SCORE.INTRA.REPUL>
0

>  <SCORE.INTRA.REPUL.0>
0

>  <SCORE.INTRA.SOLV>
-0.360119

>  <SCORE.INTRA.SOLV.lig_0>
-48.829

>  <SCORE.INTRA.VDW>
0.895391

>  <SCORE.INTRA.VDW.0>
-1.77092

>  <SCORE.INTRA.norm>
-0.039097

>  <SCORE.RESTR>
0.0233559

>  <SCORE.RESTR.CAVITY>
0.0233559

>  <SCORE.RESTR.norm>
0.000865033

>  <SCORE.SYSTEM>
0

>  <SCORE.SYSTEM.CONST>
0

>  <SCORE.SYSTEM.DIHEDRAL>
0

>  <SCORE.SYSTEM.SOLV>
0

>  <SCORE.SYSTEM.norm>
0

>  <SCORE.heavy>
27

>  <SCORE.norm>
-0.375992

>  <RMSD>
7.079

$$$$
ligand
 OpenBabel11021811503D
libRbt.so/2013.1/901 2013/11/27
 27 29  0  0  0  0  0  0  0  0999 V2000
   47.3923  -32.6522 -105.6993 N   0  0  0  0  0  0  0  0  0  0  0  0
   48.1515  -32.8582 -104.4608 C   0  0  2  0  0  0  0  0  0  0  0  0
   47.2405  -32.6510 -103.2693 C   0  0  0  0  0  0  0  0  0  0  0  0
   46.0584  -32.9520 -103.3398 O   0  0  0  0  0  0  0  0  0  0  0  0
   49.3309  -31.8814 -104.3591 C   0  0  0  0  0  0  0  0  0  0  0  0
   48.8418  -30.4400 -104.3640 C   0  0  0  0  0  0  0  0  0  0  0  0
   50.1829  -29.2178 -104.0974 S   0  0  2  0  0  0  0  0  0  0  0  0
   50.7951  -29.5957 -102.4236 C   0  0  0  0  0  0  0  0  0  0  0  0
   49.0986  -27.8488 -103.6987 C   0  0  0  0  0  0  0  0  0  0  0  0
   49.8252  -26.5553 -103.4422 C   0  0  1  0  0  0  0  0  0  0  0  0
   50.5085  -26.1856 -104.6519 O   0  0  0  0  0  0  0  0  0  0  0  0
   48.7212  -25.5909 -103.2726 C   0  0  1  0  0  0  0  0  0  0  0  0
   48.4648  -25.3956 -101.8828 O   0  0  0  0  0  0  0  0  0  0  0  0
   49.2903  -24.3405 -103.8681 C   0  0  1  0  0  0  0  0  0  0  0  0
   50.0297  -23.6023 -102.8733 O   0  0  0  0  0  0  0  0  0  0  0  0
   50.2503  -24.8033 -105.0050 C   0  0  2  0  0  0  0  0  0  0  0  0
   47.6846  -32.2144 -102.2219 O   0  0  0  0  0  0  0  0  0  0  0  0
   48.5388  -27.5692 -109.2024 N   0  0  0  0  0  0  0  0  0  0  0  0
   49.0326  -28.0547 -108.0369 C   0  0  0  0  0  0  0  0  0  0  0  0
   49.3963  -27.2387 -107.0254 N   0  0  0  0  0  0  0  0  0  0  0  0
   49.3629  -25.9047 -107.1761 C   0  0  0  0  0  0  0  0  0  0  0  0
   48.8828  -25.3441 -108.4161 C   0  0  0  0  0  0  0  0  0  0  0  0
   48.4562  -26.2428 -109.4387 C   0  0  0  0  0  0  0  0  0  0  0  0
   47.9769  -25.7745 -110.6452 N   0  0  0  0  0  0  0  0  0  0  0  0
   48.9574  -24.0125 -108.3069 N   0  0  0  0  0  0  0  0  0  0  0  0
   49.4392  -23.7112 -107.1379 C   0  0  0  0  0  0  0  0  0  0  0  0
   49.7017  -24.8366 -106.3921 N   0  0  0  0  0  0  0  0  0  0  0  0
  2  1  1  6  0  0  0
  2  3  1  0  0  0  0
  2  5  1  0  0  0  0
  3  4  1  0  0  0  0
  3 17  1  0  0  0  0
  5  6  1  0  0  0  0
  7  6  1  1  0  0  0
  7  8  1  0  0  0  0
  7  9  1  0  0  0  0
 10  9  1  6  0  0  0
 10 11  1  0  0  0  0
 10 12  1  0  0  0  0
 11 16  1  0  0  0  0
 12 13  1  1  0  0  0
 12 14  1  0  0  0  0
 14 15  1  1  0  0  0
 14 16  1  0  0  0  0
 16 27  1  6  0  0  0
 18 19  2  0  0  0  0
 18 23  1  0  0  0  0
 19 20  1  0  0  0  0
 20 21  2  0  0  0  0
 21 22  1  0  0  0  0
 21 27  1  0  0  0  0
 22 23  2  0  0  0  0
 22 25  1  0  0  0  0
 23 24  1  0  0  0  0
 25 26  2  0  0  0  0
 26 27  1  0  0  0  0
M  END
>  <CHROM.1>
33.09343523,60.28840435,174.94814963,-63.14075666,-177.89188654,62.52880089
5.99180117,49.00308452,-27.80266166,-105.19208708,2.14034851,1.28926513,2.14874840

>  <Name>
ligand

>  <RI>
0

>  <Rbt.Current_Directory>
/home/itssahil/PROJECTS/Mol_Feturizer/New_Systems/rnas/4L81

>  <Rbt.Executable>
rbdock ($Id: //depot/dev/client3/rdock/2013.1/src/exe/rbdock.cxx#4 $)

>  <Rbt.Library>
libRbt.so (2013.1, Build901 2013/11/27)

>  <Rbt.Parameter_File>
/export/apps/rDock/src/rDock_2013.1_src/data/scripts/dock_solv.prm

>  <Rbt.Receptor>
prm/pocket_docking_7.prm

>  <SCORE>
-14.5078

>  <SCORE.INTER>
-11.9525

>  <SCORE.INTER.CONST>
1

>  <SCORE.INTER.POLAR>
0

>  <SCORE.INTER.ROT>
7

>  <SCORE.INTER.SOLV>
11.7929

>  <SCORE.INTER.VDW>
-20.1659

>  <SCORE.INTER.norm>
-0.442684

>  <SCORE.INTRA>
-2.55535

>  <SCORE.INTRA.DIHEDRAL>
-4.63571

>  <SCORE.INTRA.DIHEDRAL.0>
8.34559

>  <SCORE.INTRA.POLAR>
0

>  <SCORE.INTRA.POLAR.0>
0

>  <SCORE.INTRA.REPUL>
0

>  <SCORE.INTRA.REPUL.0>
0

>  <SCORE.INTRA.SOLV>
-0.598012

>  <SCORE.INTRA.SOLV.lig_0>
-48.829

>  <SCORE.INTRA.VDW>
0.0615109

>  <SCORE.INTRA.VDW.0>
-1.77092

>  <SCORE.INTRA.norm>
-0.0946426

>  <SCORE.RESTR>
0

>  <SCORE.RESTR.CAVITY>
0

>  <SCORE.RESTR.norm>
0

>  <SCORE.SYSTEM>
0

>  <SCORE.SYSTEM.CONST>
0

>  <SCORE.SYSTEM.DIHEDRAL>
0

>  <SCORE.SYSTEM.SOLV>
0

>  <SCORE.SYSTEM.norm>
0

>  <SCORE.heavy>
27

>  <SCORE.norm>
-0.537326

>  <RMSD>
7.086

$$$$
ligand
 OpenBabel11021811503D
libRbt.so/2013.1/901 2013/11/27
 27 29  0  0  0  0  0  0  0  0999 V2000
   48.4775  -32.2935 -104.6670 N   0  0  0  0  0  0  0  0  0  0  0  0
   47.6342  -32.5564 -103.4954 C   0  0  2  0  0  0  0  0  0  0  0  0
   46.1910  -32.2455 -103.8319 C   0  0  0  0  0  0  0  0  0  0  0  0
   45.9136  -31.6631 -104.8695 O   0  0  0  0  0  0  0  0  0  0  0  0
   48.0599  -31.6981 -102.2964 C   0  0  0  0  0  0  0  0  0  0  0  0
   47.8710  -30.2178 -102.5962 C   0  0  0  0  0  0  0  0  0  0  0  0
   49.0885  -29.5601 -103.7997 S   0  0  2  0  0  0  0  0  0  0  0  0
   50.6628  -29.5715 -102.8826 C   0  0  0  0  0  0  0  0  0  0  0  0
   48.6453  -27.8387 -103.5777 C   0  0  0  0  0  0  0  0  0  0  0  0
   47.2497  -27.5085 -104.0361 C   0  0  1  0  0  0  0  0  0  0  0  0
   46.9857  -26.1373 -103.6938 O   0  0  0  0  0  0  0  0  0  0  0  0
   47.3706  -27.5580 -105.5060 C   0  0  1  0  0  0  0  0  0  0  0  0
   46.9234  -28.8268 -105.9810 O   0  0  0  0  0  0  0  0  0  0  0  0
   46.4227  -26.4849 -105.9443 C   0  0  1  0  0  0  0  0  0  0  0  0
   45.0890  -27.0180 -106.0798 O   0  0  0  0  0  0  0  0  0  0  0  0
   46.4484  -25.4034 -104.8229 C   0  0  2  0  0  0  0  0  0  0  0  0
   45.2938  -32.6022 -103.0883 O   0  0  0  0  0  0  0  0  0  0  0  0
   51.3562  -23.4511 -105.3707 N   0  0  0  0  0  0  0  0  0  0  0  0
   50.9976  -24.7411 -105.1580 C   0  0  0  0  0  0  0  0  0  0  0  0
   49.7033  -25.1142 -105.0783 N   0  0  0  0  0  0  0  0  0  0  0  0
   48.7226  -24.1976 -105.1195 C   0  0  0  0  0  0  0  0  0  0  0  0
   49.0609  -22.8068 -105.3034 C   0  0  0  0  0  0  0  0  0  0  0  0
   50.4389  -22.4631 -105.4386 C   0  0  0  0  0  0  0  0  0  0  0  0
   50.8321  -21.1536 -105.6267 N   0  0  0  0  0  0  0  0  0  0  0  0
   47.9157  -22.1146 -105.3027 N   0  0  0  0  0  0  0  0  0  0  0  0
   46.9250  -22.9379 -105.1293 C   0  0  0  0  0  0  0  0  0  0  0  0
   47.3596  -24.2380 -105.0173 N   0  0  0  0  0  0  0  0  0  0  0  0
  2  1  1  6  0  0  0
  2  3  1  0  0  0  0
  2  5  1  0  0  0  0
  3  4  1  0  0  0  0
  3 17  1  0  0  0  0
  5  6  1  0  0  0  0
  7  6  1  1  0  0  0
  7  8  1  0  0  0  0
  7  9  1  0  0  0  0
 10  9  1  1  0  0  0
 10 11  1  0  0  0  0
 10 12  1  0  0  0  0
 11 16  1  0  0  0  0
 12 13  1  6  0  0  0
 12 14  1  0  0  0  0
 14 15  1  1  0  0  0
 14 16  1  0  0  0  0
 16 27  1  6  0  0  0
 18 19  2  0  0  0  0
 18 23  1  0  0  0  0
 19 20  1  0  0  0  0
 20 21  2  0  0  0  0
 21 22  1  0  0  0  0
 21 27  1  0  0  0  0
 22 23  2  0  0  0  0
 22 25  1  0  0  0  0
 23 24  1  0  0  0  0
 25 26  2  0  0  0  0
 26 27  1  0  0  0  0
M  END
>  <CHROM.1>
-10.62618089,63.40810848,-71.75561183,-69.79929494,-65.57583328,174.96970187
50.49027201,48.05635303,-27.35813384,-104.53015750,-1.80658598,-0.24449941
-0.24880982

>  <Name>
ligand

>  <RI>
0

>  <Rbt.Current_Directory>
/home/itssahil/PROJECTS/Mol_Feturizer/New_Systems/rnas/4L81

>  <Rbt.Executable>
rbdock ($Id: //depot/dev/client3/rdock/2013.1/src/exe/rbdock.cxx#4 $)

>  <Rbt.Library>
libRbt.so (2013.1, Build901 2013/11/27)

>  <Rbt.Parameter_File>
/export/apps/rDock/src/rDock_2013.1_src/data/scripts/dock_solv.prm

>  <Rbt.Receptor>
prm/pocket_docking_6.prm

>  <SCORE>
-7.68014

>  <SCORE.INTER>
-5.22685

>  <SCORE.INTER.CONST>
1

>  <SCORE.INTER.POLAR>
0

>  <SCORE.INTER.ROT>
7

>  <SCORE.INTER.SOLV>
5.65027

>  <SCORE.INTER.VDW>
-13.6347

>  <SCORE.INTER.norm>
-0.193587

>  <SCORE.INTRA>
-2.45328

>  <SCORE.INTRA.DIHEDRAL>
-4.40556

>  <SCORE.INTRA.DIHEDRAL.0>
8.34559

>  <SCORE.INTRA.POLAR>
0

>  <SCORE.INTRA.POLAR.0>
0

>  <SCORE.INTRA.REPUL>
0

>  <SCORE.INTRA.REPUL.0>
0

>  <SCORE.INTRA.SOLV>
1.8836

>  <SCORE.INTRA.SOLV.lig_0>
-48.829

>  <SCORE.INTRA.VDW>
-1.1923

>  <SCORE.INTRA.VDW.0>
-1.77092

>  <SCORE.INTRA.norm>
-0.0908623

>  <SCORE.RESTR>
0

>  <SCORE.RESTR.CAVITY>
0

>  <SCORE.RESTR.norm>
0

>  <SCORE.SYSTEM>
0

>  <SCORE.SYSTEM.CONST>
0

>  <SCORE.SYSTEM.DIHEDRAL>
0

>  <SCORE.SYSTEM.SOLV>
0

>  <SCORE.SYSTEM.norm>
0

>  <SCORE.heavy>
27

>  <SCORE.norm>
-0.28445

>  <RMSD>
7.192

$$$$
ligand
 OpenBabel11021811503D
libRbt.so/2013.1/901 2013/11/27
 27 29  0  0  0  0  0  0  0  0999 V2000
   51.2450  -33.3636 -102.7571 N   0  0  0  0  0  0  0  0  0  0  0  0
   51.3950  -32.2074 -101.8663 C   0  0  2  0  0  0  0  0  0  0  0  0
   51.7919  -32.6825 -100.4844 C   0  0  0  0  0  0  0  0  0  0  0  0
   52.8604  -33.2497 -100.3130 O   0  0  0  0  0  0  0  0  0  0  0  0
   50.0879  -31.4102 -101.7602 C   0  0  0  0  0  0  0  0  0  0  0  0
   50.3262  -30.0672 -101.0847 C   0  0  0  0  0  0  0  0  0  0  0  0
   48.7858  -29.1120 -100.8052 S   0  0  2  0  0  0  0  0  0  0  0  0
   47.6743  -30.3011  -99.9865 C   0  0  0  0  0  0  0  0  0  0  0  0
   48.1758  -29.2645 -102.4825 C   0  0  0  0  0  0  0  0  0  0  0  0
   46.6966  -29.0165 -102.6141 C   0  0  1  0  0  0  0  0  0  0  0  0
   46.4405  -27.6571 -102.2225 O   0  0  0  0  0  0  0  0  0  0  0  0
   46.4854  -29.0795 -104.0733 C   0  0  1  0  0  0  0  0  0  0  0  0
   46.0141  -30.3769 -104.4336 O   0  0  0  0  0  0  0  0  0  0  0  0
   45.4047  -28.0654 -104.2872 C   0  0  1  0  0  0  0  0  0  0  0  0
   44.1067  -28.6717 -104.1172 O   0  0  0  0  0  0  0  0  0  0  0  0
   45.6222  -26.9689 -103.2016 C   0  0  2  0  0  0  0  0  0  0  0  0
   51.0657  -32.4740  -99.5283 O   0  0  0  0  0  0  0  0  0  0  0  0
   46.4493  -22.9361 -106.5559 N   0  0  0  0  0  0  0  0  0  0  0  0
   45.5190  -23.9173 -106.6548 C   0  0  0  0  0  0  0  0  0  0  0  0
   45.3851  -24.8669 -105.7053 N   0  0  0  0  0  0  0  0  0  0  0  0
   46.2351  -24.9217 -104.6671 C   0  0  0  0  0  0  0  0  0  0  0  0
   47.2674  -23.9208 -104.5437 C   0  0  0  0  0  0  0  0  0  0  0  0
   47.3382  -22.9027 -105.5406 C   0  0  0  0  0  0  0  0  0  0  0  0
   48.2942  -21.9093 -105.4787 N   0  0  0  0  0  0  0  0  0  0  0  0
   47.9690  -24.2056 -103.4404 N   0  0  0  0  0  0  0  0  0  0  0  0
   47.4757  -25.2754 -102.8910 C   0  0  0  0  0  0  0  0  0  0  0  0
   46.3995  -25.7585 -103.5981 N   0  0  0  0  0  0  0  0  0  0  0  0
  2  1  1  6  0  0  0
  2  3  1  0  0  0  0
  2  5  1  0  0  0  0
  3  4  1  0  0  0  0
  3 17  1  0  0  0  0
  5  6  1  0  0  0  0
  7  6  1  6  0  0  0
  7  8  1  0  0  0  0
  7  9  1  0  0  0  0
 10  9  1  6  0  0  0
 10 11  1  0  0  0  0
 10 12  1  0  0  0  0
 11 16  1  0  0  0  0
 12 13  1  1  0  0  0
 12 14  1  0  0  0  0
 14 15  1  1  0  0  0
 14 16  1  0  0  0  0
 16 27  1  6  0  0  0
 18 19  2  0  0  0  0
 18 23  1  0  0  0  0
 19 20  1  0  0  0  0
 20 21  2  0  0  0  0
 21 22  1  0  0  0  0
 21 27  1  0  0  0  0
 22 23  2  0  0  0  0
 22 25  1  0  0  0  0
 23 24  1  0  0  0  0
 25 26  2  0  0  0  0
 26 27  1  0  0  0  0
M  END
>  <CHROM.1>
63.85257035,-167.93227714,-175.53505829,50.47023169,160.33479104,62.78946738
164.82068677,47.93625874,-28.13043715,-102.97755141,1.08243835,0.33435949
2.81661003

>  <Name>
ligand

>  <RI>
0

>  <Rbt.Current_Directory>
/home/itssahil/PROJECTS/Mol_Feturizer/New_Systems/rnas/4L81

>  <Rbt.Executable>
rbdock ($Id: //depot/dev/client3/rdock/2013.1/src/exe/rbdock.cxx#4 $)

>  <Rbt.Library>
libRbt.so (2013.1, Build901 2013/11/27)

>  <Rbt.Parameter_File>
/export/apps/rDock/src/rDock_2013.1_src/data/scripts/dock_solv.prm

>  <Rbt.Receptor>
prm/pocket_docking_6.prm

>  <SCORE>
-13.5137

>  <SCORE.INTER>
-13.672

>  <SCORE.INTER.CONST>
1

>  <SCORE.INTER.POLAR>
0

>  <SCORE.INTER.ROT>
7

>  <SCORE.INTER.SOLV>
8.99477

>  <SCORE.INTER.VDW>
-20.3796

>  <SCORE.INTER.norm>
-0.506371

>  <SCORE.INTRA>
0.158295

>  <SCORE.INTRA.DIHEDRAL>
-3.96038

>  <SCORE.INTRA.DIHEDRAL.0>
8.34559

>  <SCORE.INTRA.POLAR>
0

>  <SCORE.INTRA.POLAR.0>
0

>  <SCORE.INTRA.REPUL>
0

>  <SCORE.INTRA.REPUL.0>
0

>  <SCORE.INTRA.SOLV>
-1.32305

>  <SCORE.INTRA.SOLV.lig_0>
-48.829

>  <SCORE.INTRA.VDW>
2.80001

>  <SCORE.INTRA.VDW.0>
-1.77092

>  <SCORE.INTRA.norm>
0.00586276

>  <SCORE.RESTR>
0

>  <SCORE.RESTR.CAVITY>
0

>  <SCORE.RESTR.norm>
0

>  <SCORE.SYSTEM>
0

>  <SCORE.SYSTEM.CONST>
0

>  <SCORE.SYSTEM.DIHEDRAL>
0

>  <SCORE.SYSTEM.SOLV>
0

>  <SCORE.SYSTEM.norm>
0

>  <SCORE.heavy>
27

>  <SCORE.norm>
-0.500509

>  <RMSD>
7.288

$$$$
ligand
 OpenBabel11021811503D
libRbt.so/2013.1/901 2013/11/27
 27 29  0  0  0  0  0  0  0  0999 V2000
   52.0515  -33.3228 -100.7729 N   0  0  0  0  0  0  0  0  0  0  0  0
   51.6766  -32.2499 -101.7008 C   0  0  2  0  0  0  0  0  0  0  0  0
   50.9014  -31.1845 -100.9547 C   0  0  0  0  0  0  0  0  0  0  0  0
   50.1862  -31.4912 -100.0128 O   0  0  0  0  0  0  0  0  0  0  0  0
   50.8086  -32.7820 -102.8492 C   0  0  0  0  0  0  0  0  0  0  0  0
   50.4895  -31.6753 -103.8443 C   0  0  0  0  0  0  0  0  0  0  0  0
   48.9694  -30.7388 -103.4251 S   0  0  2  0  0  0  0  0  0  0  0  0
   47.6390  -31.6670 -104.2546 C   0  0  0  0  0  0  0  0  0  0  0  0
   49.2147  -29.4483 -104.6430 C   0  0  0  0  0  0  0  0  0  0  0  0
   50.1353  -28.3489 -104.1839 C   0  0  1  0  0  0  0  0  0  0  0  0
   50.6890  -27.7203 -105.3523 O   0  0  0  0  0  0  0  0  0  0  0  0
   49.2033  -27.3740 -103.5850 C   0  0  1  0  0  0  0  0  0  0  0  0
   49.1686  -27.5514 -102.1698 O   0  0  0  0  0  0  0  0  0  0  0  0
   49.8466  -26.0642 -103.9204 C   0  0  1  0  0  0  0  0  0  0  0  0
   50.8073  -25.7027 -102.9067 O   0  0  0  0  0  0  0  0  0  0  0  0
   50.5711  -26.2769 -105.2835 C   0  0  2  0  0  0  0  0  0  0  0  0
   51.0099  -30.0113 -101.2655 O   0  0  0  0  0  0  0  0  0  0  0  0
   47.8466  -27.5942 -109.6469 N   0  0  0  0  0  0  0  0  0  0  0  0
   48.4072  -28.4291 -108.7378 C   0  0  0  0  0  0  0  0  0  0  0  0
   49.0417  -27.9625 -107.6420 N   0  0  0  0  0  0  0  0  0  0  0  0
   49.2160  -26.6432 -107.4615 C   0  0  0  0  0  0  0  0  0  0  0  0
   48.6712  -25.7187 -108.4263 C   0  0  0  0  0  0  0  0  0  0  0  0
   47.9597  -26.2533 -109.5413 C   0  0  0  0  0  0  0  0  0  0  0  0
   47.4046  -25.4258 -110.4962 N   0  0  0  0  0  0  0  0  0  0  0  0
   48.9866  -24.4841 -108.0175 N   0  0  0  0  0  0  0  0  0  0  0  0
   49.6703  -24.5663 -106.9151 C   0  0  0  0  0  0  0  0  0  0  0  0
   49.8377  -25.8725 -106.5183 N   0  0  0  0  0  0  0  0  0  0  0  0
  2  1  1  1  0  0  0
  2  3  1  0  0  0  0
  2  5  1  0  0  0  0
  3  4  1  0  0  0  0
  3 17  1  0  0  0  0
  5  6  1  0  0  0  0
  7  6  1  6  0  0  0
  7  8  1  0  0  0  0
  7  9  1  0  0  0  0
 10  9  1  6  0  0  0
 10 11  1  0  0  0  0
 10 12  1  0  0  0  0
 11 16  1  0  0  0  0
 12 13  1  1  0  0  0
 12 14  1  0  0  0  0
 14 15  1  1  0  0  0
 14 16  1  0  0  0  0
 16 27  1  6  0  0  0
 18 19  2  0  0  0  0
 18 23  1  0  0  0  0
 19 20  1  0  0  0  0
 20 21  2  0  0  0  0
 21 22  1  0  0  0  0
 21 27  1  0  0  0  0
 22 23  2  0  0  0  0
 22 25  1  0  0  0  0
 23 24  1  0  0  0  0
 25 26  2  0  0  0  0
 26 27  1  0  0  0  0
M  END
>  <CHROM.1>
-32.20972576,-176.93483041,-88.66320286,-89.03192109,-83.43917462,156.13189093
8.50189041,49.63437355,-28.55414509,-104.79465856,0.96970577,1.17712546,2.82987725

>  <Name>
ligand

>  <RI>
0

>  <Rbt.Current_Directory>
/home/itssahil/PROJECTS/Mol_Feturizer/New_Systems/rnas/4L81

>  <Rbt.Executable>
rbdock ($Id: //depot/dev/client3/rdock/2013.1/src/exe/rbdock.cxx#4 $)

>  <Rbt.Library>
libRbt.so (2013.1, Build901 2013/11/27)

>  <Rbt.Parameter_File>
/export/apps/rDock/src/rDock_2013.1_src/data/scripts/dock_solv.prm

>  <Rbt.Receptor>
prm/pocket_docking_7.prm

>  <SCORE>
-14.7673

>  <SCORE.INTER>
-12.8563

>  <SCORE.INTER.CONST>
1

>  <SCORE.INTER.POLAR>
0

>  <SCORE.INTER.ROT>
7

>  <SCORE.INTER.SOLV>
15.0778

>  <SCORE.INTER.VDW>
-21.8635

>  <SCORE.INTER.norm>
-0.47616

>  <SCORE.INTRA>
-1.911

>  <SCORE.INTRA.DIHEDRAL>
0.986044

>  <SCORE.INTRA.DIHEDRAL.0>
8.34559

>  <SCORE.INTRA.POLAR>
0

>  <SCORE.INTRA.POLAR.0>
0

>  <SCORE.INTRA.REPUL>
0

>  <SCORE.INTRA.REPUL.0>
0

>  <SCORE.INTRA.SOLV>
-0.978438

>  <SCORE.INTRA.SOLV.lig_0>
-48.829

>  <SCORE.INTRA.VDW>
-1.9148

>  <SCORE.INTRA.VDW.0>
-1.77092

>  <SCORE.INTRA.norm>
-0.0707777

>  <SCORE.RESTR>
0

>  <SCORE.RESTR.CAVITY>
0

>  <SCORE.RESTR.norm>
0

>  <SCORE.SYSTEM>
0

>  <SCORE.SYSTEM.CONST>
0

>  <SCORE.SYSTEM.DIHEDRAL>
0

>  <SCORE.SYSTEM.SOLV>
0

>  <SCORE.SYSTEM.norm>
0

>  <SCORE.heavy>
27

>  <SCORE.norm>
-0.546938

>  <RMSD>
7.300

$$$$
ligand
 OpenBabel11021811503D
libRbt.so/2013.1/901 2013/11/27
 27 29  0  0  0  0  0  0  0  0999 V2000
   48.4797  -23.4859 -111.5287 N   0  0  0  0  0  0  0  0  0  0  0  0
   47.4151  -24.0849 -110.7159 C   0  0  2  0  0  0  0  0  0  0  0  0
   47.4316  -25.5888 -110.8905 C   0  0  0  0  0  0  0  0  0  0  0  0
   47.6851  -26.0781 -111.9809 O   0  0  0  0  0  0  0  0  0  0  0  0
   46.0343  -23.5534 -111.1239 C   0  0  0  0  0  0  0  0  0  0  0  0
   45.7871  -22.1749 -110.5276 C   0  0  0  0  0  0  0  0  0  0  0  0
   45.0976  -22.2321 -108.8292 S   0  0  2  0  0  0  0  0  0  0  0  0
   45.1704  -20.5005 -108.2671 C   0  0  0  0  0  0  0  0  0  0  0  0
   46.5910  -22.8439 -108.0520 C   0  0  0  0  0  0  0  0  0  0  0  0
   46.5410  -22.8285 -106.5473 C   0  0  1  0  0  0  0  0  0  0  0  0
   45.6522  -23.8765 -106.1246 O   0  0  0  0  0  0  0  0  0  0  0  0
   47.9026  -23.2568 -106.1728 C   0  0  1  0  0  0  0  0  0  0  0  0
   48.7006  -22.1118 -105.8769 O   0  0  0  0  0  0  0  0  0  0  0  0
   47.6605  -24.0476 -104.9245 C   0  0  1  0  0  0  0  0  0  0  0  0
   47.6637  -23.1797 -103.7720 O   0  0  0  0  0  0  0  0  0  0  0  0
   46.2544  -24.6979 -105.0927 C   0  0  2  0  0  0  0  0  0  0  0  0
   47.2254  -26.3224 -109.9395 O   0  0  0  0  0  0  0  0  0  0  0  0
   48.5064  -28.6803 -107.7884 N   0  0  0  0  0  0  0  0  0  0  0  0
   48.9934  -27.4293 -107.5994 C   0  0  0  0  0  0  0  0  0  0  0  0
   48.3366  -26.5171 -106.8529 N   0  0  0  0  0  0  0  0  0  0  0  0
   47.1259  -26.7941 -106.3419 C   0  0  0  0  0  0  0  0  0  0  0  0
   46.5504  -28.1005 -106.5531 C   0  0  0  0  0  0  0  0  0  0  0  0
   47.3037  -29.0530 -107.3018 C   0  0  0  0  0  0  0  0  0  0  0  0
   46.8175  -30.3238 -107.5331 N   0  0  0  0  0  0  0  0  0  0  0  0
   45.3547  -28.1112 -105.9525 N   0  0  0  0  0  0  0  0  0  0  0  0
   45.1445  -26.9489 -105.4099 C   0  0  0  0  0  0  0  0  0  0  0  0
   46.2052  -26.0965 -105.6100 N   0  0  0  0  0  0  0  0  0  0  0  0
  2  1  1  6  0  0  0
  2  3  1  0  0  0  0
  2  5  1  0  0  0  0
  3  4  1  0  0  0  0
  3 17  1  0  0  0  0
  5  6  1  0  0  0  0
  7  6  1  6  0  0  0
  7  8  1  0  0  0  0
  7  9  1  0  0  0  0
 10  9  1  6  0  0  0
 10 11  1  0  0  0  0
 10 12  1  0  0  0  0
 11 16  1  0  0  0  0
 12 13  1  1  0  0  0
 12 14  1  0  0  0  0
 14 15  1  1  0  0  0
 14 16  1  0  0  0  0
 16 27  1  6  0  0  0
 18 19  2  0  0  0  0
 18 23  1  0  0  0  0
 19 20  1  0  0  0  0
 20 21  2  0  0  0  0
 21 22  1  0  0  0  0
 21 27  1  0  0  0  0
 22 23  2  0  0  0  0
 22 25  1  0  0  0  0
 23 24  1  0  0  0  0
 25 26  2  0  0  0  0
 26 27  1  0  0  0  0
M  END
>  <CHROM.1>
-37.16772092,-79.12018020,-86.02843898,170.72909486,170.27776686,72.47443779
91.10304850,46.86299942,-24.92715573,-107.75226029,-2.50209729,-1.40929520
1.83833848

>  <Name>
ligand

>  <RI>
0

>  <Rbt.Current_Directory>
/home/itssahil/PROJECTS/Mol_Feturizer/New_Systems/rnas/4L81

>  <Rbt.Executable>
rbdock ($Id: //depot/dev/client3/rdock/2013.1/src/exe/rbdock.cxx#4 $)

>  <Rbt.Library>
libRbt.so (2013.1, Build901 2013/11/27)

>  <Rbt.Parameter_File>
/export/apps/rDock/src/rDock_2013.1_src/data/scripts/dock_solv.prm

>  <Rbt.Receptor>
prm/pocket_docking_8.prm

>  <SCORE>
-11.5026

>  <SCORE.INTER>
-9.21233

>  <SCORE.INTER.CONST>
1

>  <SCORE.INTER.POLAR>
0

>  <SCORE.INTER.ROT>
7

>  <SCORE.INTER.SOLV>
12.41

>  <SCORE.INTER.VDW>
-18.5449

>  <SCORE.INTER.norm>
-0.341197

>  <SCORE.INTRA>
-2.29032

>  <SCORE.INTRA.DIHEDRAL>
-0.913358

>  <SCORE.INTRA.DIHEDRAL.0>
8.34559

>  <SCORE.INTRA.POLAR>
0

>  <SCORE.INTRA.POLAR.0>
0

>  <SCORE.INTRA.REPUL>
0

>  <SCORE.INTRA.REPUL.0>
0

>  <SCORE.INTRA.SOLV>
-0.101649

>  <SCORE.INTRA.SOLV.lig_0>
-48.829

>  <SCORE.INTRA.VDW>
-1.78282

>  <SCORE.INTRA.VDW.0>
-1.77092

>  <SCORE.INTRA.norm>
-0.0848267

>  <SCORE.RESTR>
0

>  <SCORE.RESTR.CAVITY>
0

>  <SCORE.RESTR.norm>
0

>  <SCORE.SYSTEM>
0

>  <SCORE.SYSTEM.CONST>
0

>  <SCORE.SYSTEM.DIHEDRAL>
0

>  <SCORE.SYSTEM.SOLV>
0

>  <SCORE.SYSTEM.norm>
0

>  <SCORE.heavy>
27

>  <SCORE.norm>
-0.426024

>  <RMSD>
7.446

$$$$
ligand
 OpenBabel11021811503D
libRbt.so/2013.1/901 2013/11/27
 27 29  0  0  0  0  0  0  0  0999 V2000
   49.3816  -32.8400 -106.4446 N   0  0  0  0  0  0  0  0  0  0  0  0
   50.1493  -32.7311 -105.1991 C   0  0  2  0  0  0  0  0  0  0  0  0
   50.8472  -34.0453 -104.9191 C   0  0  0  0  0  0  0  0  0  0  0  0
   50.2474  -35.1009 -105.0559 O   0  0  0  0  0  0  0  0  0  0  0  0
   49.2406  -32.3891 -104.0105 C   0  0  0  0  0  0  0  0  0  0  0  0
   48.7345  -30.9570 -104.1105 C   0  0  0  0  0  0  0  0  0  0  0  0
   50.0762  -29.7079 -104.0565 S   0  0  2  0  0  0  0  0  0  0  0  0
   50.7285  -29.8371 -102.3603 C   0  0  0  0  0  0  0  0  0  0  0  0
   48.9955  -28.2963 -103.8364 C   0  0  0  0  0  0  0  0  0  0  0  0
   49.7242  -27.0214 -103.5040 C   0  0  1  0  0  0  0  0  0  0  0  0
   50.4214  -26.5909 -104.6853 O   0  0  0  0  0  0  0  0  0  0  0  0
   48.6221  -26.0627 -103.2946 C   0  0  1  0  0  0  0  0  0  0  0  0
   48.3521  -25.9404 -101.8991 O   0  0  0  0  0  0  0  0  0  0  0  0
   49.2021  -24.7848 -103.8170 C   0  0  1  0  0  0  0  0  0  0  0  0
   49.9339  -24.1037 -102.7768 O   0  0  0  0  0  0  0  0  0  0  0  0
   50.1721  -25.1907 -104.9669 C   0  0  2  0  0  0  0  0  0  0  0  0
   52.0198  -34.0627 -104.5880 O   0  0  0  0  0  0  0  0  0  0  0  0
   48.5116  -27.7222 -109.3295 N   0  0  0  0  0  0  0  0  0  0  0  0
   48.9948  -28.2707 -108.1878 C   0  0  0  0  0  0  0  0  0  0  0  0
   49.3458  -27.5116 -107.1287 N   0  0  0  0  0  0  0  0  0  0  0  0
   49.3102  -26.1713 -107.2051 C   0  0  0  0  0  0  0  0  0  0  0  0
   48.8411  -25.5436 -108.4169 C   0  0  0  0  0  0  0  0  0  0  0  0
   48.4276  -26.3849 -109.4924 C   0  0  0  0  0  0  0  0  0  0  0  0
   47.9593  -25.8511 -110.6758 N   0  0  0  0  0  0  0  0  0  0  0  0
   48.9109  -24.2199 -108.2329 N   0  0  0  0  0  0  0  0  0  0  0  0
   49.3798  -23.9832 -107.0440 C   0  0  0  0  0  0  0  0  0  0  0  0
   49.6379  -25.1479 -106.3594 N   0  0  0  0  0  0  0  0  0  0  0  0
  2  1  1  6  0  0  0
  2  3  1  0  0  0  0
  2  5  1  0  0  0  0
  3  4  1  0  0  0  0
  3 17  1  0  0  0  0
  5  6  1  0  0  0  0
  7  6  1  1  0  0  0
  7  8  1  0  0  0  0
  7  9  1  0  0  0  0
 10  9  1  6  0  0  0
 10 11  1  0  0  0  0
 10 12  1  0  0  0  0
 11 16  1  0  0  0  0
 12 13  1  1  0  0  0
 12 14  1  0  0  0  0
 14 15  1  1  0  0  0
 14 16  1  0  0  0  0
 16 27  1  6  0  0  0
 18 19  2  0  0  0  0
 18 23  1  0  0  0  0
 19 20  1  0  0  0  0
 20 21  2  0  0  0  0
 21 22  1  0  0  0  0
 21 27  1  0  0  0  0
 22 23  2  0  0  0  0
 22 25  1  0  0  0  0
 23 24  1  0  0  0  0
 25 26  2  0  0  0  0
 26 27  1  0  0  0  0
M  END
>  <CHROM.1>
-44.22369986,-70.57862846,-62.27853705,-67.41726576,170.13415356,71.18033153
5.58818867,49.54081374,-28.30320615,-105.44680477,0.60778298,1.38354278,-2.43794684

>  <Name>
ligand

>  <RI>
0

>  <Rbt.Current_Directory>
/home/itssahil/PROJECTS/Mol_Feturizer/New_Systems/rnas/4L81

>  <Rbt.Executable>
rbdock ($Id: //depot/dev/client3/rdock/2013.1/src/exe/rbdock.cxx#4 $)

>  <Rbt.Library>
libRbt.so (2013.1, Build901 2013/11/27)

>  <Rbt.Parameter_File>
/export/apps/rDock/src/rDock_2013.1_src/data/scripts/dock_solv.prm

>  <Rbt.Receptor>
prm/pocket_docking_7.prm

>  <SCORE>
-14.9701

>  <SCORE.INTER>
-11.5725

>  <SCORE.INTER.CONST>
1

>  <SCORE.INTER.POLAR>
0

>  <SCORE.INTER.ROT>
7

>  <SCORE.INTER.SOLV>
10.9261

>  <SCORE.INTER.VDW>
-19.6237

>  <SCORE.INTER.norm>
-0.428609

>  <SCORE.INTRA>
-3.39767

>  <SCORE.INTRA.DIHEDRAL>
-4.09861

>  <SCORE.INTRA.DIHEDRAL.0>
8.34559

>  <SCORE.INTRA.POLAR>
0

>  <SCORE.INTRA.POLAR.0>
0

>  <SCORE.INTRA.REPUL>
0

>  <SCORE.INTRA.REPUL.0>
0

>  <SCORE.INTRA.SOLV>
-0.153214

>  <SCORE.INTRA.SOLV.lig_0>
-48.829

>  <SCORE.INTRA.VDW>
-1.27175

>  <SCORE.INTRA.VDW.0>
-1.77092

>  <SCORE.INTRA.norm>
-0.12584

>  <SCORE.RESTR>
0

>  <SCORE.RESTR.CAVITY>
0

>  <SCORE.RESTR.norm>
0

>  <SCORE.SYSTEM>
0

>  <SCORE.SYSTEM.CONST>
0

>  <SCORE.SYSTEM.DIHEDRAL>
0

>  <SCORE.SYSTEM.SOLV>
0

>  <SCORE.SYSTEM.norm>
0

>  <SCORE.heavy>
27

>  <SCORE.norm>
-0.554449

>  <RMSD>
7.497

$$$$
ligand
 OpenBabel11021811503D
libRbt.so/2013.1/901 2013/11/27
 27 29  0  0  0  0  0  0  0  0999 V2000
   46.4935  -28.1605 -100.4641 N   0  0  0  0  0  0  0  0  0  0  0  0
   45.2321  -28.7412 -100.9378 C   0  0  2  0  0  0  0  0  0  0  0  0
   45.1050  -30.1602 -100.4249 C   0  0  0  0  0  0  0  0  0  0  0  0
   44.0672  -30.7831 -100.5914 O   0  0  0  0  0  0  0  0  0  0  0  0
   45.1666  -28.7603 -102.4710 C   0  0  0  0  0  0  0  0  0  0  0  0
   44.9169  -27.3625 -103.0196 C   0  0  0  0  0  0  0  0  0  0  0  0
   44.8484  -27.3035 -104.8513 S   0  0  2  0  0  0  0  0  0  0  0  0
   44.1436  -28.9179 -105.3166 C   0  0  0  0  0  0  0  0  0  0  0  0
   46.5834  -27.6695 -105.1055 C   0  0  0  0  0  0  0  0  0  0  0  0
   46.9338  -27.9797 -106.5366 C   0  0  1  0  0  0  0  0  0  0  0  0
   46.8238  -26.7614 -107.2919 O   0  0  0  0  0  0  0  0  0  0  0  0
   48.3731  -28.2955 -106.4572 C   0  0  1  0  0  0  0  0  0  0  0  0
   48.5510  -29.7100 -106.4025 O   0  0  0  0  0  0  0  0  0  0  0  0
   48.8923  -27.7649 -107.7576 C   0  0  1  0  0  0  0  0  0  0  0  0
   48.7744  -28.7651 -108.7907 O   0  0  0  0  0  0  0  0  0  0  0  0
   48.0009  -26.5357 -108.1077 C   0  0  2  0  0  0  0  0  0  0  0  0
   46.0459  -30.7029  -99.8725 O   0  0  0  0  0  0  0  0  0  0  0  0
   51.2745  -23.5253 -105.2061 N   0  0  0  0  0  0  0  0  0  0  0  0
   51.1477  -24.8747 -105.1775 C   0  0  0  0  0  0  0  0  0  0  0  0
   50.3014  -25.5258 -106.0027 N   0  0  0  0  0  0  0  0  0  0  0  0
   49.4866  -24.8445 -106.8244 C   0  0  0  0  0  0  0  0  0  0  0  0
   49.5587  -23.4036 -106.8580 C   0  0  0  0  0  0  0  0  0  0  0  0
   50.5065  -22.7586 -106.0089 C   0  0  0  0  0  0  0  0  0  0  0  0
   50.6350  -21.3846 -105.9978 N   0  0  0  0  0  0  0  0  0  0  0  0
   48.6499  -22.9795 -107.7441 N   0  0  0  0  0  0  0  0  0  0  0  0
   48.0323  -24.0096 -108.2410 C   0  0  0  0  0  0  0  0  0  0  0  0
   48.5101  -25.1885 -107.7178 N   0  0  0  0  0  0  0  0  0  0  0  0
  2  1  1  6  0  0  0
  2  3  1  0  0  0  0
  2  5  1  0  0  0  0
  3  4  1  0  0  0  0
  3 17  1  0  0  0  0
  5  6  1  0  0  0  0
  7  6  1  1  0  0  0
  7  8  1  0  0  0  0
  7  9  1  0  0  0  0
 10  9  1  1  0  0  0
 10 11  1  0  0  0  0
 10 12  1  0  0  0  0
 11 16  1  0  0  0  0
 12 13  1  6  0  0  0
 12 14  1  0  0  0  0
 14 15  1  6  0  0  0
 14 16  1  0  0  0  0
 16 27  1  1  0  0  0
 18 19  2  0  0  0  0
 18 23  1  0  0  0  0
 19 20  1  0  0  0  0
 20 21  2  0  0  0  0
 21 22  1  0  0  0  0
 21 27  1  0  0  0  0
 22 23  2  0  0  0  0
 22 25  1  0  0  0  0
 23 24  1  0  0  0  0
 25 26  2  0  0  0  0
 26 27  1  0  0  0  0
M  END
>  <CHROM.1>
172.71792304,-74.29817512,179.22759871,32.28832314,168.97151456,70.12937364
96.04517479,47.47013340,-26.90924306,-105.13880800,-2.64565284,-0.93808682
-1.77377158

>  <Name>
ligand

>  <RI>
0

>  <Rbt.Current_Directory>
/home/itssahil/PROJECTS/Mol_Feturizer/New_Systems/rnas/4L81

>  <Rbt.Executable>
rbdock ($Id: //depot/dev/client3/rdock/2013.1/src/exe/rbdock.cxx#4 $)

>  <Rbt.Library>
libRbt.so (2013.1, Build901 2013/11/27)

>  <Rbt.Parameter_File>
/export/apps/rDock/src/rDock_2013.1_src/data/scripts/dock_solv.prm

>  <Rbt.Receptor>
prm/pocket_docking_7.prm

>  <SCORE>
-13.1536

>  <SCORE.INTER>
-12.075

>  <SCORE.INTER.CONST>
1

>  <SCORE.INTER.POLAR>
0

>  <SCORE.INTER.ROT>
7

>  <SCORE.INTER.SOLV>
14.1905

>  <SCORE.INTER.VDW>
-21.0468

>  <SCORE.INTER.norm>
-0.447221

>  <SCORE.INTRA>
-1.07864

>  <SCORE.INTRA.DIHEDRAL>
-3.0363

>  <SCORE.INTRA.DIHEDRAL.0>
8.34559

>  <SCORE.INTRA.POLAR>
0

>  <SCORE.INTRA.POLAR.0>
0

>  <SCORE.INTRA.REPUL>
0

>  <SCORE.INTRA.REPUL.0>
0

>  <SCORE.INTRA.SOLV>
-0.708847

>  <SCORE.INTRA.SOLV.lig_0>
-48.829

>  <SCORE.INTRA.VDW>
0.793931

>  <SCORE.INTRA.VDW.0>
-1.77092

>  <SCORE.INTRA.norm>
-0.0399497

>  <SCORE.RESTR>
0

>  <SCORE.RESTR.CAVITY>
0

>  <SCORE.RESTR.norm>
0

>  <SCORE.SYSTEM>
0

>  <SCORE.SYSTEM.CONST>
0

>  <SCORE.SYSTEM.DIHEDRAL>
0

>  <SCORE.SYSTEM.SOLV>
0

>  <SCORE.SYSTEM.norm>
0

>  <SCORE.heavy>
27

>  <SCORE.norm>
-0.487171

>  <RMSD>
7.506

$$$$
ligand
 OpenBabel11021811503D
libRbt.so/2013.1/901 2013/11/27
 27 29  0  0  0  0  0  0  0  0999 V2000
   46.6352  -31.2075 -103.6546 N   0  0  0  0  0  0  0  0  0  0  0  0
   47.6083  -31.5404 -104.7010 C   0  0  2  0  0  0  0  0  0  0  0  0
   48.0079  -32.9954 -104.5749 C   0  0  0  0  0  0  0  0  0  0  0  0
   48.2753  -33.6479 -105.5726 O   0  0  0  0  0  0  0  0  0  0  0  0
   48.8670  -30.6691 -104.5915 C   0  0  0  0  0  0  0  0  0  0  0  0
   48.5176  -29.1939 -104.7271 C   0  0  0  0  0  0  0  0  0  0  0  0
   49.9747  -28.0880 -104.5952 S   0  0  2  0  0  0  0  0  0  0  0  0
   50.6838  -28.4885 -102.9654 C   0  0  0  0  0  0  0  0  0  0  0  0
   49.0459  -26.6235 -104.1465 C   0  0  0  0  0  0  0  0  0  0  0  0
   49.8978  -25.3934 -103.9794 C   0  0  1  0  0  0  0  0  0  0  0  0
   50.4731  -25.0780 -105.2586 O   0  0  0  0  0  0  0  0  0  0  0  0
   48.8999  -24.3433 -103.6979 C   0  0  1  0  0  0  0  0  0  0  0  0
   48.8125  -24.1304 -102.2899 O   0  0  0  0  0  0  0  0  0  0  0  0
   49.4998  -23.1419 -104.3603 C   0  0  1  0  0  0  0  0  0  0  0  0
   50.3999  -22.4676 -103.4567 O   0  0  0  0  0  0  0  0  0  0  0  0
   50.2902  -23.6787 -105.5912 C   0  0  2  0  0  0  0  0  0  0  0  0
   48.0982  -33.5174 -103.4774 O   0  0  0  0  0  0  0  0  0  0  0  0
   48.1112  -26.3012 -109.6621 N   0  0  0  0  0  0  0  0  0  0  0  0
   48.7256  -26.8258 -108.5735 C   0  0  0  0  0  0  0  0  0  0  0  0
   49.2034  -26.0444 -107.5825 N   0  0  0  0  0  0  0  0  0  0  0  0
   49.1634  -24.7060 -107.6862 C   0  0  0  0  0  0  0  0  0  0  0  0
   48.5549  -24.1039 -108.8479 C   0  0  0  0  0  0  0  0  0  0  0  0
   48.0128  -24.9675 -109.8458 C   0  0  0  0  0  0  0  0  0  0  0  0
   47.4081  -24.4587 -110.9772 N   0  0  0  0  0  0  0  0  0  0  0  0
   48.6506  -22.7768 -108.7054 N   0  0  0  0  0  0  0  0  0  0  0  0
   49.2592  -22.5152 -107.5870 C   0  0  0  0  0  0  0  0  0  0  0  0
   49.5934  -23.6652 -106.9105 N   0  0  0  0  0  0  0  0  0  0  0  0
  2  1  1  1  0  0  0
  2  3  1  0  0  0  0
  2  5  1  0  0  0  0
  3  4  1  0  0  0  0
  3 17  1  0  0  0  0
  5  6  1  0  0  0  0
  7  6  1  1  0  0  0
  7  8  1  0  0  0  0
  7  9  1  0  0  0  0
 10  9  1  6  0  0  0
 10 11  1  0  0  0  0
 10 12  1  0  0  0  0
 11 16  1  0  0  0  0
 12 13  1  1  0  0  0
 12 14  1  0  0  0  0
 14 15  1  1  0  0  0
 14 16  1  0  0  0  0
 16 27  1  6  0  0  0
 18 19  2  0  0  0  0
 18 23  1  0  0  0  0
 19 20  1  0  0  0  0
 20 21  2  0  0  0  0
 21 22  1  0  0  0  0
 21 27  1  0  0  0  0
 22 23  2  0  0  0  0
 22 25  1  0  0  0  0
 23 24  1  0  0  0  0
 25 26  2  0  0  0  0
 26 27  1  0  0  0  0
M  END
>  <CHROM.1>
146.68984466,-59.78112404,179.62843299,-57.61080823,-177.85901860,64.54292879
1.23812801,48.97988363,-26.81920756,-105.69577112,1.90245846,1.26723195,2.49363893

>  <Name>
ligand

>  <RI>
0

>  <Rbt.Current_Directory>
/home/itssahil/PROJECTS/Mol_Feturizer/New_Systems/rnas/4L81

>  <Rbt.Executable>
rbdock ($Id: //depot/dev/client3/rdock/2013.1/src/exe/rbdock.cxx#4 $)

>  <Rbt.Library>
libRbt.so (2013.1, Build901 2013/11/27)

>  <Rbt.Parameter_File>
/export/apps/rDock/src/rDock_2013.1_src/data/scripts/dock_solv.prm

>  <Rbt.Receptor>
prm/pocket_docking_7.prm

>  <SCORE>
-11.8916

>  <SCORE.INTER>
-8.39755

>  <SCORE.INTER.CONST>
1

>  <SCORE.INTER.POLAR>
0

>  <SCORE.INTER.ROT>
7

>  <SCORE.INTER.SOLV>
7.69448

>  <SCORE.INTER.VDW>
-16.4299

>  <SCORE.INTER.norm>
-0.31102

>  <SCORE.INTRA>
-3.4941

>  <SCORE.INTRA.DIHEDRAL>
-4.3933

>  <SCORE.INTRA.DIHEDRAL.0>
8.34559

>  <SCORE.INTRA.POLAR>
0

>  <SCORE.INTRA.POLAR.0>
0

>  <SCORE.INTRA.REPUL>
0

>  <SCORE.INTRA.REPUL.0>
0

>  <SCORE.INTRA.SOLV>
-0.597672

>  <SCORE.INTRA.SOLV.lig_0>
-48.829

>  <SCORE.INTRA.VDW>
-0.998615

>  <SCORE.INTRA.VDW.0>
-1.77092

>  <SCORE.INTRA.norm>
-0.129411

>  <SCORE.RESTR>
0

>  <SCORE.RESTR.CAVITY>
0

>  <SCORE.RESTR.norm>
0

>  <SCORE.SYSTEM>
0

>  <SCORE.SYSTEM.CONST>
0

>  <SCORE.SYSTEM.DIHEDRAL>
0

>  <SCORE.SYSTEM.SOLV>
0

>  <SCORE.SYSTEM.norm>
0

>  <SCORE.heavy>
27

>  <SCORE.norm>
-0.440431

>  <RMSD>
7.667

$$$$
ligand
 OpenBabel11021811503D
libRbt.so/2013.1/901 2013/11/27
 27 29  0  0  0  0  0  0  0  0999 V2000
   46.4008  -28.6921  -98.9264 N   0  0  0  0  0  0  0  0  0  0  0  0
   45.8099  -29.7538  -99.7488 C   0  0  2  0  0  0  0  0  0  0  0  0
   46.9130  -30.5649 -100.3955 C   0  0  0  0  0  0  0  0  0  0  0  0
   48.0232  -30.6073  -99.8874 O   0  0  0  0  0  0  0  0  0  0  0  0
   44.9107  -29.1737 -100.8489 C   0  0  0  0  0  0  0  0  0  0  0  0
   45.7001  -28.2428 -101.7584 C   0  0  0  0  0  0  0  0  0  0  0  0
   44.7215  -27.6103 -103.1747 S   0  0  2  0  0  0  0  0  0  0  0  0
   44.2851  -29.1106 -104.1118 C   0  0  0  0  0  0  0  0  0  0  0  0
   46.1323  -27.0751 -104.1401 C   0  0  0  0  0  0  0  0  0  0  0  0
   45.8149  -26.8281 -105.5910 C   0  0  1  0  0  0  0  0  0  0  0  0
   45.1940  -25.5354 -105.6930 O   0  0  0  0  0  0  0  0  0  0  0  0
   47.1535  -26.6995 -106.1988 C   0  0  1  0  0  0  0  0  0  0  0  0
   47.5349  -27.9429 -106.7853 O   0  0  0  0  0  0  0  0  0  0  0  0
   46.9253  -25.6778 -107.2694 C   0  0  1  0  0  0  0  0  0  0  0  0
   46.4825  -26.3155 -108.4854 O   0  0  0  0  0  0  0  0  0  0  0  0
   45.8095  -24.7325 -106.7315 C   0  0  2  0  0  0  0  0  0  0  0  0
   46.6939  -31.2072 -101.4077 O   0  0  0  0  0  0  0  0  0  0  0  0
   48.5454  -22.2730 -102.9021 N   0  0  0  0  0  0  0  0  0  0  0  0
   48.4162  -23.6079 -103.1001 C   0  0  0  0  0  0  0  0  0  0  0  0
   47.7216  -24.1069 -104.1440 N   0  0  0  0  0  0  0  0  0  0  0  0
   47.0566  -23.2900 -104.9771 C   0  0  0  0  0  0  0  0  0  0  0  0
   47.1325  -21.8626 -104.7792 C   0  0  0  0  0  0  0  0  0  0  0  0
   47.9232  -21.3759 -103.6960 C   0  0  0  0  0  0  0  0  0  0  0  0
   48.0473  -20.0226 -103.4554 N   0  0  0  0  0  0  0  0  0  0  0  0
   46.3859  -21.2881 -105.7296 N   0  0  0  0  0  0  0  0  0  0  0  0
   45.8615  -22.2165 -106.4730 C   0  0  0  0  0  0  0  0  0  0  0  0
   46.2448  -23.4719 -106.0624 N   0  0  0  0  0  0  0  0  0  0  0  0
  2  1  1  6  0  0  0
  2  3  1  0  0  0  0
  2  5  1  0  0  0  0
  3  4  1  0  0  0  0
  3 17  1  0  0  0  0
  5  6  1  0  0  0  0
  7  6  1  1  0  0  0
  7  8  1  0  0  0  0
  7  9  1  0  0  0  0
 10  9  1  1  0  0  0
 10 11  1  0  0  0  0
 10 12  1  0  0  0  0
 11 16  1  0  0  0  0
 12 13  1  6  0  0  0
 12 14  1  0  0  0  0
 14 15  1  6  0  0  0
 14 16  1  0  0  0  0
 16 27  1  1  0  0  0
 18 19  2  0  0  0  0
 18 23  1  0  0  0  0
 19 20  1  0  0  0  0
 20 21  2  0  0  0  0
 21 22  1  0  0  0  0
 21 27  1  0  0  0  0
 22 23  2  0  0  0  0
 22 25  1  0  0  0  0
 23 24  1  0  0  0  0
 25 26  2  0  0  0  0
 26 27  1  0  0  0  0
M  END
>  <CHROM.1>
24.44513518,59.17726410,175.60504815,-62.18958700,163.48762718,79.63301802
55.67640056,46.48353075,-26.10238514,-103.90754719,-1.92821489,-1.27003732
-0.90268463

>  <Name>
ligand

>  <RI>
0

>  <Rbt.Current_Directory>
/home/itssahil/PROJECTS/Mol_Feturizer/New_Systems/rnas/4L81

>  <Rbt.Executable>
rbdock ($Id: //depot/dev/client3/rdock/2013.1/src/exe/rbdock.cxx#4 $)

>  <Rbt.Library>
libRbt.so (2013.1, Build901 2013/11/27)

>  <Rbt.Parameter_File>
/export/apps/rDock/src/rDock_2013.1_src/data/scripts/dock_solv.prm

>  <Rbt.Receptor>
prm/pocket_docking_7.prm

>  <SCORE>
-15.265

>  <SCORE.INTER>
-13.383

>  <SCORE.INTER.CONST>
1

>  <SCORE.INTER.POLAR>
0

>  <SCORE.INTER.ROT>
7

>  <SCORE.INTER.SOLV>
16.5245

>  <SCORE.INTER.VDW>
-22.6968

>  <SCORE.INTER.norm>
-0.495665

>  <SCORE.INTRA>
-1.88202

>  <SCORE.INTRA.DIHEDRAL>
-3.42183

>  <SCORE.INTRA.DIHEDRAL.0>
8.34559

>  <SCORE.INTRA.POLAR>
0

>  <SCORE.INTRA.POLAR.0>
0

>  <SCORE.INTRA.REPUL>
0

>  <SCORE.INTRA.REPUL.0>
0

>  <SCORE.INTRA.SOLV>
-0.578037

>  <SCORE.INTRA.SOLV.lig_0>
-48.829

>  <SCORE.INTRA.VDW>
0.117908

>  <SCORE.INTRA.VDW.0>
-1.77092

>  <SCORE.INTRA.norm>
-0.0697046

>  <SCORE.RESTR>
0

>  <SCORE.RESTR.CAVITY>
0

>  <SCORE.RESTR.norm>
0

>  <SCORE.SYSTEM>
0

>  <SCORE.SYSTEM.CONST>
0

>  <SCORE.SYSTEM.DIHEDRAL>
0

>  <SCORE.SYSTEM.SOLV>
0

>  <SCORE.SYSTEM.norm>
0

>  <SCORE.heavy>
27

>  <SCORE.norm>
-0.56537

>  <RMSD>
7.676

$$$$
ligand
 OpenBabel11021811503D
libRbt.so/2013.1/901 2013/11/27
 27 29  0  0  0  0  0  0  0  0999 V2000
   46.9561  -29.0330 -100.5743 N   0  0  0  0  0  0  0  0  0  0  0  0
   45.5323  -29.0118 -100.9279 C   0  0  2  0  0  0  0  0  0  0  0  0
   45.0992  -30.3958 -101.3634 C   0  0  0  0  0  0  0  0  0  0  0  0
   43.9728  -30.7954 -101.1096 O   0  0  0  0  0  0  0  0  0  0  0  0
   45.2544  -28.0233 -102.0686 C   0  0  0  0  0  0  0  0  0  0  0  0
   46.2483  -28.2152 -103.2054 C   0  0  0  0  0  0  0  0  0  0  0  0
   45.7674  -27.3420 -104.7447 S   0  0  2  0  0  0  0  0  0  0  0  0
   44.5425  -28.4501 -105.5138 C   0  0  0  0  0  0  0  0  0  0  0  0
   47.2144  -27.8267 -105.6829 C   0  0  0  0  0  0  0  0  0  0  0  0
   47.0567  -27.6568 -107.1706 C   0  0  1  0  0  0  0  0  0  0  0  0
   46.8010  -26.2662 -107.4313 O   0  0  0  0  0  0  0  0  0  0  0  0
   48.4153  -27.9351 -107.6749 C   0  0  1  0  0  0  0  0  0  0  0  0
   48.4928  -29.2878 -108.1218 O   0  0  0  0  0  0  0  0  0  0  0  0
   48.5234  -27.0039 -108.8425 C   0  0  1  0  0  0  0  0  0  0  0  0
   48.0007  -27.6291 -110.0331 O   0  0  0  0  0  0  0  0  0  0  0  0
   47.6633  -25.7564 -108.4794 C   0  0  2  0  0  0  0  0  0  0  0  0
   45.8573  -31.1082 -101.9980 O   0  0  0  0  0  0  0  0  0  0  0  0
   51.2717  -23.7983 -105.1114 N   0  0  0  0  0  0  0  0  0  0  0  0
   50.9219  -25.0963 -105.2868 C   0  0  0  0  0  0  0  0  0  0  0  0
   50.0132  -25.4677 -106.2127 N   0  0  0  0  0  0  0  0  0  0  0  0
   49.3561  -24.5461 -106.9355 C   0  0  0  0  0  0  0  0  0  0  0  0
   49.6674  -23.1489 -106.7521 C   0  0  0  0  0  0  0  0  0  0  0  0
   50.6742  -22.8043 -105.8019 C   0  0  0  0  0  0  0  0  0  0  0  0
   51.0282  -21.4883 -105.5836 N   0  0  0  0  0  0  0  0  0  0  0  0
   48.8777  -22.4529 -107.5784 N   0  0  0  0  0  0  0  0  0  0  0  0
   48.1183  -23.2801 -108.2330 C   0  0  0  0  0  0  0  0  0  0  0  0
   48.3727  -24.5861 -107.8848 N   0  0  0  0  0  0  0  0  0  0  0  0
  2  1  1  6  0  0  0
  2  3  1  0  0  0  0
  2  5  1  0  0  0  0
  3  4  1  0  0  0  0
  3 17  1  0  0  0  0
  5  6  1  0  0  0  0
  7  6  1  1  0  0  0
  7  8  1  0  0  0  0
  7  9  1  0  0  0  0
 10  9  1  1  0  0  0
 10 11  1  0  0  0  0
 10 12  1  0  0  0  0
 11 16  1  0  0  0  0
 12 13  1  6  0  0  0
 12 14  1  0  0  0  0
 14 15  1  6  0  0  0
 14 16  1  0  0  0  0
 16 27  1  1  0  0  0
 18 19  2  0  0  0  0
 18 23  1  0  0  0  0
 19 20  1  0  0  0  0
 20 21  2  0  0  0  0
 21 22  1  0  0  0  0
 21 27  1  0  0  0  0
 22 23  2  0  0  0  0
 22 25  1  0  0  0  0
 23 24  1  0  0  0  0
 25 26  2  0  0  0  0
 26 27  1  0  0  0  0
M  END
>  <CHROM.1>
145.56606204,47.77356106,167.27582611,-80.80499428,162.90320654,60.13418223
71.25205645,47.60346800,-26.75026517,-105.51513231,-2.57458391,-0.95988361
-1.66087313

>  <Name>
ligand

>  <RI>
0

>  <Rbt.Current_Directory>
/home/itssahil/PROJECTS/Mol_Feturizer/New_Systems/rnas/4L81

>  <Rbt.Executable>
rbdock ($Id: //depot/dev/client3/rdock/2013.1/src/exe/rbdock.cxx#4 $)

>  <Rbt.Library>
libRbt.so (2013.1, Build901 2013/11/27)

>  <Rbt.Parameter_File>
/export/apps/rDock/src/rDock_2013.1_src/data/scripts/dock_solv.prm

>  <Rbt.Receptor>
prm/pocket_docking_7.prm

>  <SCORE>
-13.5057

>  <SCORE.INTER>
-10.819

>  <SCORE.INTER.CONST>
1

>  <SCORE.INTER.POLAR>
0

>  <SCORE.INTER.ROT>
7

>  <SCORE.INTER.SOLV>
12.4802

>  <SCORE.INTER.VDW>
-19.6394

>  <SCORE.INTER.norm>
-0.400705

>  <SCORE.INTRA>
-2.68663

>  <SCORE.INTRA.DIHEDRAL>
-3.34102

>  <SCORE.INTRA.DIHEDRAL.0>
8.34559

>  <SCORE.INTRA.POLAR>
0

>  <SCORE.INTRA.POLAR.0>
0

>  <SCORE.INTRA.REPUL>
0

>  <SCORE.INTRA.REPUL.0>
0

>  <SCORE.INTRA.SOLV>
-0.490883

>  <SCORE.INTRA.SOLV.lig_0>
-48.829

>  <SCORE.INTRA.VDW>
-0.770684

>  <SCORE.INTRA.VDW.0>
-1.77092

>  <SCORE.INTRA.norm>
-0.099505

>  <SCORE.RESTR>
0

>  <SCORE.RESTR.CAVITY>
0

>  <SCORE.RESTR.norm>
0

>  <SCORE.SYSTEM>
0

>  <SCORE.SYSTEM.CONST>
0

>  <SCORE.SYSTEM.DIHEDRAL>
0

>  <SCORE.SYSTEM.SOLV>
0

>  <SCORE.SYSTEM.norm>
0

>  <SCORE.heavy>
27

>  <SCORE.norm>
-0.50021

>  <RMSD>
7.700

$$$$
ligand
 OpenBabel11021811503D
libRbt.so/2013.1/901 2013/11/27
 27 29  0  0  0  0  0  0  0  0999 V2000
   46.8974  -28.9902 -100.4505 N   0  0  0  0  0  0  0  0  0  0  0  0
   45.5157  -29.1094 -100.9294 C   0  0  2  0  0  0  0  0  0  0  0  0
   45.2852  -30.5070 -101.4644 C   0  0  0  0  0  0  0  0  0  0  0  0
   44.1523  -30.9589 -101.5348 O   0  0  0  0  0  0  0  0  0  0  0  0
   45.2213  -28.0966 -102.0443 C   0  0  0  0  0  0  0  0  0  0  0  0
   46.2518  -28.2043 -103.1594 C   0  0  0  0  0  0  0  0  0  0  0  0
   45.7465  -27.3465 -104.6996 S   0  0  2  0  0  0  0  0  0  0  0  0
   44.5377  -28.4799 -105.4571 C   0  0  0  0  0  0  0  0  0  0  0  0
   47.1968  -27.8088 -105.6440 C   0  0  0  0  0  0  0  0  0  0  0  0
   47.0330  -27.6340 -107.1304 C   0  0  1  0  0  0  0  0  0  0  0  0
   46.7723  -26.2432 -107.3850 O   0  0  0  0  0  0  0  0  0  0  0  0
   48.3905  -27.9065 -107.6409 C   0  0  1  0  0  0  0  0  0  0  0  0
   48.4701  -29.2573 -108.0931 O   0  0  0  0  0  0  0  0  0  0  0  0
   48.4914  -26.9707 -108.8055 C   0  0  1  0  0  0  0  0  0  0  0  0
   47.9660  -27.5930 -109.9963 O   0  0  0  0  0  0  0  0  0  0  0  0
   47.6291  -25.7270 -108.4344 C   0  0  2  0  0  0  0  0  0  0  0  0
   46.2222  -31.1785 -101.8594 O   0  0  0  0  0  0  0  0  0  0  0  0
   51.3000  -23.7747 -105.1312 N   0  0  0  0  0  0  0  0  0  0  0  0
   50.9646  -25.0746 -105.3206 C   0  0  0  0  0  0  0  0  0  0  0  0
   50.0362  -25.4431 -106.2280 N   0  0  0  0  0  0  0  0  0  0  0  0
   49.3460  -24.5189 -106.9156 C   0  0  0  0  0  0  0  0  0  0  0  0
   49.6417  -23.1206 -106.7154 C   0  0  0  0  0  0  0  0  0  0  0  0
   50.6692  -22.7777 -105.7870 C   0  0  0  0  0  0  0  0  0  0  0  0
   51.0097  -21.4607 -105.5545 N   0  0  0  0  0  0  0  0  0  0  0  0
   48.8193  -22.4221 -107.5070 N   0  0  0  0  0  0  0  0  0  0  0  0
   48.0544  -23.2489 -108.1555 C   0  0  0  0  0  0  0  0  0  0  0  0
   48.3374  -24.5569 -107.8383 N   0  0  0  0  0  0  0  0  0  0  0  0
  2  1  1  6  0  0  0
  2  3  1  0  0  0  0
  2  5  1  0  0  0  0
  3  4  1  0  0  0  0
  3 17  1  0  0  0  0
  5  6  1  0  0  0  0
  7  6  1  1  0  0  0
  7  8  1  0  0  0  0
  7  9  1  0  0  0  0
 10  9  1  1  0  0  0
 10 11  1  0  0  0  0
 10 12  1  0  0  0  0
 11 16  1  0  0  0  0
 12 13  1  6  0  0  0
 12 14  1  0  0  0  0
 14 15  1  6  0  0  0
 14 16  1  0  0  0  0
 16 27  1  1  0  0  0
 18 19  2  0  0  0  0
 18 23  1  0  0  0  0
 19 20  1  0  0  0  0
 20 21  2  0  0  0  0
 21 22  1  0  0  0  0
 21 27  1  0  0  0  0
 22 23  2  0  0  0  0
 22 25  1  0  0  0  0
 23 24  1  0  0  0  0
 25 26  2  0  0  0  0
 26 27  1  0  0  0  0
M  END
>  <CHROM.1>
157.78189422,53.13024857,165.46905266,-77.29545832,163.53577153,60.68301672
72.98150438,47.61379695,-26.75159519,-105.49842213,-2.55610258,-0.96681787
-1.62280238

>  <Name>
ligand

>  <RI>
0

>  <Rbt.Current_Directory>
/home/itssahil/PROJECTS/Mol_Feturizer/New_Systems/rnas/4L81

>  <Rbt.Executable>
rbdock ($Id: //depot/dev/client3/rdock/2013.1/src/exe/rbdock.cxx#4 $)

>  <Rbt.Library>
libRbt.so (2013.1, Build901 2013/11/27)

>  <Rbt.Parameter_File>
/export/apps/rDock/src/rDock_2013.1_src/data/scripts/dock_solv.prm

>  <Rbt.Receptor>
prm/pocket_docking_8.prm

>  <SCORE>
-13.3606

>  <SCORE.INTER>
-10.4689

>  <SCORE.INTER.CONST>
1

>  <SCORE.INTER.POLAR>
0

>  <SCORE.INTER.ROT>
7

>  <SCORE.INTER.SOLV>
12.3358

>  <SCORE.INTER.VDW>
-19.3579

>  <SCORE.INTER.norm>
-0.387739

>  <SCORE.INTRA>
-2.89169

>  <SCORE.INTRA.DIHEDRAL>
-3.78011

>  <SCORE.INTRA.DIHEDRAL.0>
8.34559

>  <SCORE.INTRA.POLAR>
0

>  <SCORE.INTRA.POLAR.0>
0

>  <SCORE.INTRA.REPUL>
0

>  <SCORE.INTRA.REPUL.0>
0

>  <SCORE.INTRA.SOLV>
-0.52885

>  <SCORE.INTRA.SOLV.lig_0>
-48.829

>  <SCORE.INTRA.VDW>
-0.737215

>  <SCORE.INTRA.VDW.0>
-1.77092

>  <SCORE.INTRA.norm>
-0.1071

>  <SCORE.RESTR>
0

>  <SCORE.RESTR.CAVITY>
0

>  <SCORE.RESTR.norm>
0

>  <SCORE.SYSTEM>
0

>  <SCORE.SYSTEM.CONST>
0

>  <SCORE.SYSTEM.DIHEDRAL>
0

>  <SCORE.SYSTEM.SOLV>
0

>  <SCORE.SYSTEM.norm>
0

>  <SCORE.heavy>
27

>  <SCORE.norm>
-0.494839

>  <RMSD>
7.702

$$$$
ligand
 OpenBabel11021811503D
libRbt.so/2013.1/901 2013/11/27
 27 29  0  0  0  0  0  0  0  0999 V2000
   48.2654  -29.9133 -101.5881 N   0  0  0  0  0  0  0  0  0  0  0  0
   47.7311  -28.6695 -101.0221 C   0  0  2  0  0  0  0  0  0  0  0  0
   46.5594  -28.9885 -100.1176 C   0  0  0  0  0  0  0  0  0  0  0  0
   45.6874  -29.7588 -100.4903 O   0  0  0  0  0  0  0  0  0  0  0  0
   47.2604  -27.7108 -102.1241 C   0  0  0  0  0  0  0  0  0  0  0  0
   46.2174  -28.3760 -103.0111 C   0  0  0  0  0  0  0  0  0  0  0  0
   45.7536  -27.3650 -104.4692 S   0  0  2  0  0  0  0  0  0  0  0  0
   44.5464  -28.4018 -105.3564 C   0  0  0  0  0  0  0  0  0  0  0  0
   47.2167  -27.7534 -105.4269 C   0  0  0  0  0  0  0  0  0  0  0  0
   47.0167  -27.6332 -106.9143 C   0  0  1  0  0  0  0  0  0  0  0  0
   46.7600  -26.2509 -107.2148 O   0  0  0  0  0  0  0  0  0  0  0  0
   48.3589  -27.9360 -107.4478 C   0  0  1  0  0  0  0  0  0  0  0  0
   48.4171  -29.3035 -107.8505 O   0  0  0  0  0  0  0  0  0  0  0  0
   48.4373  -27.0456 -108.6491 C   0  0  1  0  0  0  0  0  0  0  0  0
   47.8775  -27.7078 -109.8021 O   0  0  0  0  0  0  0  0  0  0  0  0
   47.5939  -25.7817 -108.3040 C   0  0  2  0  0  0  0  0  0  0  0  0
   46.4936  -28.5066  -99.0003 O   0  0  0  0  0  0  0  0  0  0  0  0
   51.3471  -23.7356 -105.1536 N   0  0  0  0  0  0  0  0  0  0  0  0
   50.9944  -25.0383 -105.2824 C   0  0  0  0  0  0  0  0  0  0  0  0
   50.0452  -25.4337 -106.1563 N   0  0  0  0  0  0  0  0  0  0  0  0
   49.3518  -24.5310 -106.8689 C   0  0  0  0  0  0  0  0  0  0  0  0
   49.6660  -23.1291 -106.7327 C   0  0  0  0  0  0  0  0  0  0  0  0
   50.7144  -22.7596 -105.8386 C   0  0  0  0  0  0  0  0  0  0  0  0
   51.0731  -21.4379 -105.6676 N   0  0  0  0  0  0  0  0  0  0  0  0
   48.8361  -22.4547 -107.5374 N   0  0  0  0  0  0  0  0  0  0  0  0
   48.0504  -23.2990 -108.1366 C   0  0  0  0  0  0  0  0  0  0  0  0
   48.3256  -24.5959 -107.7704 N   0  0  0  0  0  0  0  0  0  0  0  0
  2  1  1  6  0  0  0
  2  3  1  0  0  0  0
  2  5  1  0  0  0  0
  3  4  1  0  0  0  0
  3 17  1  0  0  0  0
  5  6  1  0  0  0  0
  7  6  1  1  0  0  0
  7  8  1  0  0  0  0
  7  9  1  0  0  0  0
 10  9  1  1  0  0  0
 10 11  1  0  0  0  0
 10 12  1  0  0  0  0
 11 16  1  0  0  0  0
 12 13  1  6  0  0  0
 12 14  1  0  0  0  0
 14 15  1  6  0  0  0
 14 16  1  0  0  0  0
 16 27  1  1  0  0  0
 18 19  2  0  0  0  0
 18 23  1  0  0  0  0
 19 20  1  0  0  0  0
 20 21  2  0  0  0  0
 21 22  1  0  0  0  0
 21 27  1  0  0  0  0
 22 23  2  0  0  0  0
 22 25  1  0  0  0  0
 23 24  1  0  0  0  0
 25 26  2  0  0  0  0
 26 27  1  0  0  0  0
M  END
>  <CHROM.1>
-46.57843743,56.91014901,-173.12248971,178.65630827,154.64723225,65.15269284
72.52141350,47.92037245,-26.56615782,-105.25962490,-2.21992054,-0.94740605
-1.46083143

>  <Name>
ligand

>  <RI>
0

>  <Rbt.Current_Directory>
/home/itssahil/PROJECTS/Mol_Feturizer/New_Systems/rnas/4L81

>  <Rbt.Executable>
rbdock ($Id: //depot/dev/client3/rdock/2013.1/src/exe/rbdock.cxx#4 $)

>  <Rbt.Library>
libRbt.so (2013.1, Build901 2013/11/27)

>  <Rbt.Parameter_File>
/export/apps/rDock/src/rDock_2013.1_src/data/scripts/dock_solv.prm

>  <Rbt.Receptor>
prm/pocket_docking_6.prm

>  <SCORE>
-12.2253

>  <SCORE.INTER>
-10.1823

>  <SCORE.INTER.CONST>
1

>  <SCORE.INTER.POLAR>
0

>  <SCORE.INTER.ROT>
7

>  <SCORE.INTER.SOLV>
10.4968

>  <SCORE.INTER.VDW>
-18.5538

>  <SCORE.INTER.norm>
-0.377122

>  <SCORE.INTRA>
-2.04302

>  <SCORE.INTRA.DIHEDRAL>
-3.62191

>  <SCORE.INTRA.DIHEDRAL.0>
8.34559

>  <SCORE.INTRA.POLAR>
0

>  <SCORE.INTRA.POLAR.0>
0

>  <SCORE.INTRA.REPUL>
0

>  <SCORE.INTRA.REPUL.0>
0

>  <SCORE.INTRA.SOLV>
-0.42363

>  <SCORE.INTRA.SOLV.lig_0>
-48.829

>  <SCORE.INTRA.VDW>
-0.0202485

>  <SCORE.INTRA.VDW.0>
-1.77092

>  <SCORE.INTRA.norm>
-0.0756674

>  <SCORE.RESTR>
0

>  <SCORE.RESTR.CAVITY>
0

>  <SCORE.RESTR.norm>
0

>  <SCORE.SYSTEM>
0

>  <SCORE.SYSTEM.CONST>
0

>  <SCORE.SYSTEM.DIHEDRAL>
0

>  <SCORE.SYSTEM.SOLV>
0

>  <SCORE.SYSTEM.norm>
0

>  <SCORE.heavy>
27

>  <SCORE.norm>
-0.452789

>  <RMSD>
7.743

$$$$
ligand
 OpenBabel11021811503D
libRbt.so/2013.1/901 2013/11/27
 27 29  0  0  0  0  0  0  0  0999 V2000
   50.0691  -31.7642 -105.5866 N   0  0  0  0  0  0  0  0  0  0  0  0
   50.5286  -31.7263 -104.1937 C   0  0  2  0  0  0  0  0  0  0  0  0
   50.2438  -33.0578 -103.5313 C   0  0  0  0  0  0  0  0  0  0  0  0
   51.0889  -33.5856 -102.8242 O   0  0  0  0  0  0  0  0  0  0  0  0
   49.8222  -30.6174 -103.4021 C   0  0  0  0  0  0  0  0  0  0  0  0
   50.3119  -29.2441 -103.8393 C   0  0  0  0  0  0  0  0  0  0  0  0
   49.2839  -27.8685 -103.1957 S   0  0  2  0  0  0  0  0  0  0  0  0
   48.8875  -28.3765 -101.4915 C   0  0  0  0  0  0  0  0  0  0  0  0
   47.7707  -28.3851 -104.0032 C   0  0  0  0  0  0  0  0  0  0  0  0
   46.5749  -27.5433 -103.6449 C   0  0  1  0  0  0  0  0  0  0  0  0
   46.8063  -26.2141 -104.1415 O   0  0  0  0  0  0  0  0  0  0  0  0
   45.5069  -28.1236 -104.4816 C   0  0  1  0  0  0  0  0  0  0  0  0
   44.7380  -29.0429 -103.7076 O   0  0  0  0  0  0  0  0  0  0  0  0
   44.6775  -26.9249 -104.8240 C   0  0  1  0  0  0  0  0  0  0  0  0
   43.6881  -26.6903 -103.8006 O   0  0  0  0  0  0  0  0  0  0  0  0
   45.6659  -25.7220 -104.8895 C   0  0  2  0  0  0  0  0  0  0  0  0
   49.1599  -33.5967 -103.6709 O   0  0  0  0  0  0  0  0  0  0  0  0
   46.2205  -22.1373 -108.7677 N   0  0  0  0  0  0  0  0  0  0  0  0
   45.5338  -22.0010 -107.6068 C   0  0  0  0  0  0  0  0  0  0  0  0
   45.5060  -22.9808 -106.6792 N   0  0  0  0  0  0  0  0  0  0  0  0
   46.0902  -24.1663 -106.9177 C   0  0  0  0  0  0  0  0  0  0  0  0
   46.7978  -24.3697 -108.1588 C   0  0  0  0  0  0  0  0  0  0  0  0
   46.8492  -23.2881 -109.0877 C   0  0  0  0  0  0  0  0  0  0  0  0
   47.5170  -23.4111 -110.2892 N   0  0  0  0  0  0  0  0  0  0  0  0
   47.2743  -25.6202 -108.1456 N   0  0  0  0  0  0  0  0  0  0  0  0
   46.9222  -26.1943 -107.0339 C   0  0  0  0  0  0  0  0  0  0  0  0
   46.1961  -25.3447 -106.2322 N   0  0  0  0  0  0  0  0  0  0  0  0
  2  1  1  6  0  0  0
  2  3  1  0  0  0  0
  2  5  1  0  0  0  0
  3  4  1  0  0  0  0
  3 17  1  0  0  0  0
  5  6  1  0  0  0  0
  7  6  1  6  0  0  0
  7  8  1  0  0  0  0
  7  9  1  0  0  0  0
 10  9  1  6  0  0  0
 10 11  1  0  0  0  0
 10 12  1  0  0  0  0
 11 16  1  0  0  0  0
 12 13  1  1  0  0  0
 12 14  1  0  0  0  0
 14 15  1  1  0  0  0
 14 16  1  0  0  0  0
 16 27  1  6  0  0  0
 18 19  2  0  0  0  0
 18 23  1  0  0  0  0
 19 20  1  0  0  0  0
 20 21  2  0  0  0  0
 21 22  1  0  0  0  0
 21 27  1  0  0  0  0
 22 23  2  0  0  0  0
 22 25  1  0  0  0  0
 23 24  1  0  0  0  0
 25 26  2  0  0  0  0
 26 27  1  0  0  0  0
M  END
>  <CHROM.1>
136.10274929,-71.36475597,168.22191446,39.72218005,175.56493056,64.84494468
-126.42191711,47.50138042,-27.47196559,-105.14476836,-1.09099032,0.60434858
-0.78241542

>  <Name>
ligand

>  <RI>
0

>  <Rbt.Current_Directory>
/home/itssahil/PROJECTS/Mol_Feturizer/New_Systems/rnas/4L81

>  <Rbt.Executable>
rbdock ($Id: //depot/dev/client3/rdock/2013.1/src/exe/rbdock.cxx#4 $)

>  <Rbt.Library>
libRbt.so (2013.1, Build901 2013/11/27)

>  <Rbt.Parameter_File>
/export/apps/rDock/src/rDock_2013.1_src/data/scripts/dock_solv.prm

>  <Rbt.Receptor>
prm/pocket_docking_7.prm

>  <SCORE>
-7.08353

>  <SCORE.INTER>
-5.5358

>  <SCORE.INTER.CONST>
1

>  <SCORE.INTER.POLAR>
0

>  <SCORE.INTER.ROT>
7

>  <SCORE.INTER.SOLV>
11.5625

>  <SCORE.INTER.VDW>
-15.8114

>  <SCORE.INTER.norm>
-0.20503

>  <SCORE.INTRA>
-1.54773

>  <SCORE.INTRA.DIHEDRAL>
-3.67336

>  <SCORE.INTRA.DIHEDRAL.0>
8.34559

>  <SCORE.INTRA.POLAR>
0

>  <SCORE.INTRA.POLAR.0>
0

>  <SCORE.INTRA.REPUL>
0

>  <SCORE.INTRA.REPUL.0>
0

>  <SCORE.INTRA.SOLV>
-0.524453

>  <SCORE.INTRA.SOLV.lig_0>
-48.829

>  <SCORE.INTRA.VDW>
0.551178

>  <SCORE.INTRA.VDW.0>
-1.77092

>  <SCORE.INTRA.norm>
-0.0573233

>  <SCORE.RESTR>
0

>  <SCORE.RESTR.CAVITY>
0

>  <SCORE.RESTR.norm>
0

>  <SCORE.SYSTEM>
0

>  <SCORE.SYSTEM.CONST>
0

>  <SCORE.SYSTEM.DIHEDRAL>
0

>  <SCORE.SYSTEM.SOLV>
0

>  <SCORE.SYSTEM.norm>
0

>  <SCORE.heavy>
27

>  <SCORE.norm>
-0.262353

>  <RMSD>
7.755

$$$$
ligand
 OpenBabel11021811503D
libRbt.so/2013.1/901 2013/11/27
 27 29  0  0  0  0  0  0  0  0999 V2000
   48.6943  -23.5364 -111.7113 N   0  0  0  0  0  0  0  0  0  0  0  0
   47.9119  -24.2737 -110.7128 C   0  0  2  0  0  0  0  0  0  0  0  0
   48.2019  -25.7547 -110.8368 C   0  0  0  0  0  0  0  0  0  0  0  0
   48.1124  -26.3097 -111.9215 O   0  0  0  0  0  0  0  0  0  0  0  0
   46.4061  -24.0457 -110.9030 C   0  0  0  0  0  0  0  0  0  0  0  0
   46.0118  -22.6419 -110.4661 C   0  0  0  0  0  0  0  0  0  0  0  0
   45.7963  -22.4802 -108.6520 S   0  0  2  0  0  0  0  0  0  0  0  0
   45.3478  -20.7300 -108.4174 C   0  0  0  0  0  0  0  0  0  0  0  0
   47.5442  -22.3766 -108.2742 C   0  0  0  0  0  0  0  0  0  0  0  0
   47.8510  -21.5651 -107.0437 C   0  0  1  0  0  0  0  0  0  0  0  0
   46.9807  -22.0136 -105.9910 O   0  0  0  0  0  0  0  0  0  0  0  0
   49.2093  -22.0180 -106.6865 C   0  0  1  0  0  0  0  0  0  0  0  0
   50.1711  -21.0936 -107.1923 O   0  0  0  0  0  0  0  0  0  0  0  0
   49.1850  -21.9629 -105.1903 C   0  0  1  0  0  0  0  0  0  0  0  0
   49.5507  -20.6453 -104.7306 O   0  0  0  0  0  0  0  0  0  0  0  0
   47.7181  -22.2807 -104.7716 C   0  0  2  0  0  0  0  0  0  0  0  0
   48.5584  -26.3968 -109.8644 O   0  0  0  0  0  0  0  0  0  0  0  0
   44.7552  -26.6378 -105.4317 N   0  0  0  0  0  0  0  0  0  0  0  0
   44.6142  -25.4396 -106.0501 C   0  0  0  0  0  0  0  0  0  0  0  0
   45.4665  -24.4184 -105.8221 N   0  0  0  0  0  0  0  0  0  0  0  0
   46.4373  -24.5295 -104.9009 C   0  0  0  0  0  0  0  0  0  0  0  0
   46.5981  -25.7742 -104.1885 C   0  0  0  0  0  0  0  0  0  0  0  0
   45.7099  -26.8461 -104.5005 C   0  0  0  0  0  0  0  0  0  0  0  0
   45.8138  -28.0665 -103.8643 N   0  0  0  0  0  0  0  0  0  0  0  0
   47.6191  -25.6175 -103.3378 N   0  0  0  0  0  0  0  0  0  0  0  0
   48.0846  -24.4096 -103.4550 C   0  0  0  0  0  0  0  0  0  0  0  0
   47.4009  -23.6930 -104.4093 N   0  0  0  0  0  0  0  0  0  0  0  0
  2  1  1  6  0  0  0
  2  3  1  0  0  0  0
  2  5  1  0  0  0  0
  3  4  1  0  0  0  0
  3 17  1  0  0  0  0
  5  6  1  0  0  0  0
  7  6  1  6  0  0  0
  7  8  1  0  0  0  0
  7  9  1  0  0  0  0
 10  9  1  6  0  0  0
 10 11  1  0  0  0  0
 10 12  1  0  0  0  0
 11 16  1  0  0  0  0
 12 13  1  6  0  0  0
 12 14  1  0  0  0  0
 14 15  1  6  0  0  0
 14 16  1  0  0  0  0
 16 27  1  6  0  0  0
 18 19  2  0  0  0  0
 18 23  1  0  0  0  0
 19 20  1  0  0  0  0
 20 21  2  0  0  0  0
 21 22  1  0  0  0  0
 21 27  1  0  0  0  0
 22 23  2  0  0  0  0
 22 25  1  0  0  0  0
 23 24  1  0  0  0  0
 25 26  2  0  0  0  0
 26 27  1  0  0  0  0
M  END
>  <CHROM.1>
-51.73337441,-72.65247976,-80.96456370,179.58605270,150.40415375,48.45604645
-12.29920993,47.21952515,-23.79045601,-107.15901385,1.28947990,-1.17359218
-1.68140268

>  <Name>
ligand

>  <RI>
0

>  <Rbt.Current_Directory>
/home/itssahil/PROJECTS/Mol_Feturizer/New_Systems/rnas/4L81

>  <Rbt.Executable>
rbdock ($Id: //depot/dev/client3/rdock/2013.1/src/exe/rbdock.cxx#4 $)

>  <Rbt.Library>
libRbt.so (2013.1, Build901 2013/11/27)

>  <Rbt.Parameter_File>
/export/apps/rDock/src/rDock_2013.1_src/data/scripts/dock_solv.prm

>  <Rbt.Receptor>
prm/pocket_docking_8.prm

>  <SCORE>
-12.5952

>  <SCORE.INTER>
-11.9477

>  <SCORE.INTER.CONST>
1

>  <SCORE.INTER.POLAR>
0

>  <SCORE.INTER.ROT>
7

>  <SCORE.INTER.SOLV>
6.63384

>  <SCORE.INTER.VDW>
-18.4431

>  <SCORE.INTER.norm>
-0.442508

>  <SCORE.INTRA>
-0.647501

>  <SCORE.INTRA.DIHEDRAL>
-0.941843

>  <SCORE.INTRA.DIHEDRAL.0>
8.34559

>  <SCORE.INTRA.POLAR>
0

>  <SCORE.INTRA.POLAR.0>
0

>  <SCORE.INTRA.REPUL>
0

>  <SCORE.INTRA.REPUL.0>
0

>  <SCORE.INTRA.SOLV>
0.320489

>  <SCORE.INTRA.SOLV.lig_0>
-48.829

>  <SCORE.INTRA.VDW>
-0.336824

>  <SCORE.INTRA.VDW.0>
-1.77092

>  <SCORE.INTRA.norm>
-0.0239815

>  <SCORE.RESTR>
0

>  <SCORE.RESTR.CAVITY>
0

>  <SCORE.RESTR.norm>
0

>  <SCORE.SYSTEM>
0

>  <SCORE.SYSTEM.CONST>
0

>  <SCORE.SYSTEM.DIHEDRAL>
0

>  <SCORE.SYSTEM.SOLV>
0

>  <SCORE.SYSTEM.norm>
0

>  <SCORE.heavy>
27

>  <SCORE.norm>
-0.466489

>  <RMSD>
7.785

$$$$
ligand
 OpenBabel11021811503D
libRbt.so/2013.1/901 2013/11/27
 27 29  0  0  0  0  0  0  0  0999 V2000
   44.0845  -31.0386 -101.6748 N   0  0  0  0  0  0  0  0  0  0  0  0
   45.2970  -30.2644 -101.9629 C   0  0  2  0  0  0  0  0  0  0  0  0
   46.2100  -30.2874 -100.7552 C   0  0  0  0  0  0  0  0  0  0  0  0
   47.4142  -30.4367 -100.8980 O   0  0  0  0  0  0  0  0  0  0  0  0
   44.9612  -28.8060 -102.3031 C   0  0  0  0  0  0  0  0  0  0  0  0
   45.9736  -28.2322 -103.2844 C   0  0  0  0  0  0  0  0  0  0  0  0
   45.5236  -26.5637 -103.8985 S   0  0  2  0  0  0  0  0  0  0  0  0
   43.8820  -26.8013 -104.6524 C   0  0  0  0  0  0  0  0  0  0  0  0
   46.5282  -26.6430 -105.3795 C   0  0  0  0  0  0  0  0  0  0  0  0
   47.9968  -26.4276 -105.1276 C   0  0  1  0  0  0  0  0  0  0  0  0
   48.6694  -26.4431 -106.3982 O   0  0  0  0  0  0  0  0  0  0  0  0
   48.0425  -25.0335 -104.6460 C   0  0  1  0  0  0  0  0  0  0  0  0
   48.0839  -25.0203 -103.2199 O   0  0  0  0  0  0  0  0  0  0  0  0
   49.3444  -24.5430 -105.1997 C   0  0  1  0  0  0  0  0  0  0  0  0
   50.4227  -24.8463 -104.2906 O   0  0  0  0  0  0  0  0  0  0  0  0
   49.5552  -25.3045 -106.5428 C   0  0  2  0  0  0  0  0  0  0  0  0
   45.7565  -30.1242  -99.6360 O   0  0  0  0  0  0  0  0  0  0  0  0
   48.1142  -25.5316 -111.6487 N   0  0  0  0  0  0  0  0  0  0  0  0
   48.4904  -26.5592 -110.8484 C   0  0  0  0  0  0  0  0  0  0  0  0
   48.7942  -26.3711 -109.5471 N   0  0  0  0  0  0  0  0  0  0  0  0
   48.8189  -25.1356 -109.0214 C   0  0  0  0  0  0  0  0  0  0  0  0
   48.4652  -24.0072 -109.8484 C   0  0  0  0  0  0  0  0  0  0  0  0
   48.0970  -24.2573 -111.2039 C   0  0  0  0  0  0  0  0  0  0  0  0
   47.7381  -23.2255 -112.0473 N   0  0  0  0  0  0  0  0  0  0  0  0
   48.5753  -22.9087 -109.0922 N   0  0  0  0  0  0  0  0  0  0  0  0
   48.9658  -23.2535 -107.9014 C   0  0  0  0  0  0  0  0  0  0  0  0
   49.1257  -24.6153 -107.7945 N   0  0  0  0  0  0  0  0  0  0  0  0
  2  1  1  1  0  0  0
  2  3  1  0  0  0  0
  2  5  1  0  0  0  0
  3  4  1  0  0  0  0
  3 17  1  0  0  0  0
  5  6  1  0  0  0  0
  7  6  1  1  0  0  0
  7  8  1  0  0  0  0
  7  9  1  0  0  0  0
 10  9  1  6  0  0  0
 10 11  1  0  0  0  0
 10 12  1  0  0  0  0
 11 16  1  0  0  0  0
 12 13  1  1  0  0  0
 12 14  1  0  0  0  0
 14 15  1  1  0  0  0
 14 16  1  0  0  0  0
 16 27  1  6  0  0  0
 18 19  2  0  0  0  0
 18 23  1  0  0  0  0
 19 20  1  0  0  0  0
 20 21  2  0  0  0  0
 21 22  1  0  0  0  0
 21 27  1  0  0  0  0
 22 23  2  0  0  0  0
 22 25  1  0  0  0  0
 23 24  1  0  0  0  0
 25 26  2  0  0  0  0
 26 27  1  0  0  0  0
M  END
>  <CHROM.1>
137.95942393,-148.93821539,172.86358974,-57.64535760,-76.99249941,-176.87829506
-45.24148172,47.40117081,-26.45558179,-105.65256154,1.97506573,0.74298560
1.83151634

>  <Name>
ligand

>  <RI>
0

>  <Rbt.Current_Directory>
/home/itssahil/PROJECTS/Mol_Feturizer/New_Systems/rnas/4L81

>  <Rbt.Executable>
rbdock ($Id: //depot/dev/client3/rdock/2013.1/src/exe/rbdock.cxx#4 $)

>  <Rbt.Library>
libRbt.so (2013.1, Build901 2013/11/27)

>  <Rbt.Parameter_File>
/export/apps/rDock/src/rDock_2013.1_src/data/scripts/dock_solv.prm

>  <Rbt.Receptor>
prm/pocket_docking_8.prm

>  <SCORE>
-13.7722

>  <SCORE.INTER>
-12.5255

>  <SCORE.INTER.CONST>
1

>  <SCORE.INTER.POLAR>
0

>  <SCORE.INTER.ROT>
7

>  <SCORE.INTER.SOLV>
11.6901

>  <SCORE.INTER.VDW>
-20.5137

>  <SCORE.INTER.norm>
-0.463908

>  <SCORE.INTRA>
-1.2467

>  <SCORE.INTRA.DIHEDRAL>
-1.14013

>  <SCORE.INTRA.DIHEDRAL.0>
8.34559

>  <SCORE.INTRA.POLAR>
0

>  <SCORE.INTRA.POLAR.0>
0

>  <SCORE.INTRA.REPUL>
0

>  <SCORE.INTRA.REPUL.0>
0

>  <SCORE.INTRA.SOLV>
-0.994989

>  <SCORE.INTRA.SOLV.lig_0>
-48.829

>  <SCORE.INTRA.VDW>
-0.179147

>  <SCORE.INTRA.VDW.0>
-1.77092

>  <SCORE.INTRA.norm>
-0.0461742

>  <SCORE.RESTR>
0

>  <SCORE.RESTR.CAVITY>
0

>  <SCORE.RESTR.norm>
0

>  <SCORE.SYSTEM>
0

>  <SCORE.SYSTEM.CONST>
0

>  <SCORE.SYSTEM.DIHEDRAL>
0

>  <SCORE.SYSTEM.SOLV>
0

>  <SCORE.SYSTEM.norm>
0

>  <SCORE.heavy>
27

>  <SCORE.norm>
-0.510082

>  <RMSD>
7.888

$$$$
ligand
 OpenBabel11021811503D
libRbt.so/2013.1/901 2013/11/27
 27 29  0  0  0  0  0  0  0  0999 V2000
   48.6074  -25.2019 -104.2992 N   0  0  0  0  0  0  0  0  0  0  0  0
   49.5135  -24.2021 -104.8753 C   0  0  2  0  0  0  0  0  0  0  0  0
   50.0450  -23.3081 -103.7748 C   0  0  0  0  0  0  0  0  0  0  0  0
   49.9708  -23.6605 -102.6073 O   0  0  0  0  0  0  0  0  0  0  0  0
   48.7968  -23.3329 -105.9176 C   0  0  0  0  0  0  0  0  0  0  0  0
   49.8006  -22.6536 -106.8384 C   0  0  0  0  0  0  0  0  0  0  0  0
   49.0382  -21.4141 -107.9545 S   0  0  2  0  0  0  0  0  0  0  0  0
   47.9607  -20.4383 -106.8563 C   0  0  0  0  0  0  0  0  0  0  0  0
   47.8109  -22.5242 -108.6403 C   0  0  0  0  0  0  0  0  0  0  0  0
   48.3596  -23.4683 -109.6768 C   0  0  1  0  0  0  0  0  0  0  0  0
   48.8914  -24.6149 -108.9917 O   0  0  0  0  0  0  0  0  0  0  0  0
   47.1433  -23.9247 -110.3766 C   0  0  1  0  0  0  0  0  0  0  0  0
   46.9643  -23.1654 -111.5710 O   0  0  0  0  0  0  0  0  0  0  0  0
   47.4803  -25.3431 -110.7182 C   0  0  1  0  0  0  0  0  0  0  0  0
   48.1763  -25.4035 -111.9804 O   0  0  0  0  0  0  0  0  0  0  0  0
   48.4108  -25.8515 -109.5764 C   0  0  2  0  0  0  0  0  0  0  0  0
   50.5797  -22.2473 -104.0462 O   0  0  0  0  0  0  0  0  0  0  0  0
   45.0207  -26.0142 -105.4925 N   0  0  0  0  0  0  0  0  0  0  0  0
   45.3121  -24.9531 -106.2844 C   0  0  0  0  0  0  0  0  0  0  0  0
   46.1675  -25.0562 -107.3230 N   0  0  0  0  0  0  0  0  0  0  0  0
   46.8304  -26.2013 -107.5531 C   0  0  0  0  0  0  0  0  0  0  0  0
   46.5816  -27.3451 -106.7091 C   0  0  0  0  0  0  0  0  0  0  0  0
   45.6283  -27.2084 -105.6566 C   0  0  0  0  0  0  0  0  0  0  0  0
   45.3351  -28.2648 -104.8183 N   0  0  0  0  0  0  0  0  0  0  0  0
   47.3639  -28.3396 -107.1447 N   0  0  0  0  0  0  0  0  0  0  0  0
   48.0634  -27.9149 -108.1547 C   0  0  0  0  0  0  0  0  0  0  0  0
   47.7724  -26.6054 -108.4583 N   0  0  0  0  0  0  0  0  0  0  0  0
  2  1  1  1  0  0  0
  2  3  1  0  0  0  0
  2  5  1  0  0  0  0
  3  4  1  0  0  0  0
  3 17  1  0  0  0  0
  5  6  1  0  0  0  0
  7  6  1  1  0  0  0
  7  8  1  0  0  0  0
  7  9  1  0  0  0  0
 10  9  1  1  0  0  0
 10 11  1  0  0  0  0
 10 12  1  0  0  0  0
 11 16  1  0  0  0  0
 12 13  1  6  0  0  0
 12 14  1  0  0  0  0
 14 15  1  6  0  0  0
 14 16  1  0  0  0  0
 16 27  1  1  0  0  0
 18 19  2  0  0  0  0
 18 23  1  0  0  0  0
 19 20  1  0  0  0  0
 20 21  2  0  0  0  0
 21 22  1  0  0  0  0
 21 27  1  0  0  0  0
 22 23  2  0  0  0  0
 22 25  1  0  0  0  0
 23 24  1  0  0  0  0
 25 26  2  0  0  0  0
 26 27  1  0  0  0  0
M  END
>  <CHROM.1>
17.49565171,-160.28830987,-171.75733540,46.72788481,-77.56091592,85.71183688
51.05426518,47.94047030,-24.53425169,-107.32087425,0.84438040,1.06401705
1.84431884

>  <Name>
ligand

>  <RI>
0

>  <Rbt.Current_Directory>
/home/itssahil/PROJECTS/Mol_Feturizer/New_Systems/rnas/4L81

>  <Rbt.Executable>
rbdock ($Id: //depot/dev/client3/rdock/2013.1/src/exe/rbdock.cxx#4 $)

>  <Rbt.Library>
libRbt.so (2013.1, Build901 2013/11/27)

>  <Rbt.Parameter_File>
/export/apps/rDock/src/rDock_2013.1_src/data/scripts/dock_solv.prm

>  <Rbt.Receptor>
prm/pocket_docking_8.prm

>  <SCORE>
-13.4223

>  <SCORE.INTER>
-11.6495

>  <SCORE.INTER.CONST>
1

>  <SCORE.INTER.POLAR>
0

>  <SCORE.INTER.ROT>
7

>  <SCORE.INTER.SOLV>
6.30942

>  <SCORE.INTER.VDW>
-18.1361

>  <SCORE.INTER.norm>
-0.431463

>  <SCORE.INTRA>
-1.7728

>  <SCORE.INTRA.DIHEDRAL>
-1.12674

>  <SCORE.INTRA.DIHEDRAL.0>
8.34559

>  <SCORE.INTRA.POLAR>
0

>  <SCORE.INTRA.POLAR.0>
0

>  <SCORE.INTRA.REPUL>
0

>  <SCORE.INTRA.REPUL.0>
0

>  <SCORE.INTRA.SOLV>
-0.566724

>  <SCORE.INTRA.SOLV.lig_0>
-48.829

>  <SCORE.INTRA.VDW>
-0.926065

>  <SCORE.INTRA.VDW.0>
-1.77092

>  <SCORE.INTRA.norm>
-0.0656592

>  <SCORE.RESTR>
0

>  <SCORE.RESTR.CAVITY>
0

>  <SCORE.RESTR.norm>
0

>  <SCORE.SYSTEM>
0

>  <SCORE.SYSTEM.CONST>
0

>  <SCORE.SYSTEM.DIHEDRAL>
0

>  <SCORE.SYSTEM.SOLV>
0

>  <SCORE.SYSTEM.norm>
0

>  <SCORE.heavy>
27

>  <SCORE.norm>
-0.497122

>  <RMSD>
7.891

$$$$
ligand
 OpenBabel11021811503D
libRbt.so/2013.1/901 2013/11/27
 27 29  0  0  0  0  0  0  0  0999 V2000
   47.0440  -23.4685 -109.2801 N   0  0  0  0  0  0  0  0  0  0  0  0
   48.3645  -23.8810 -109.7688 C   0  0  2  0  0  0  0  0  0  0  0  0
   48.4621  -23.6057 -111.2545 C   0  0  0  0  0  0  0  0  0  0  0  0
   47.4579  -23.6248 -111.9503 O   0  0  0  0  0  0  0  0  0  0  0  0
   48.6089  -25.3763 -109.5244 C   0  0  0  0  0  0  0  0  0  0  0  0
   48.6201  -25.6864 -108.0342 C   0  0  0  0  0  0  0  0  0  0  0  0
   49.2631  -27.3595 -107.6461 S   0  0  2  0  0  0  0  0  0  0  0  0
   47.9557  -28.4810 -108.2397 C   0  0  0  0  0  0  0  0  0  0  0  0
   48.8307  -27.3170 -105.9083 C   0  0  0  0  0  0  0  0  0  0  0  0
   49.9521  -26.8554 -105.0160 C   0  0  1  0  0  0  0  0  0  0  0  0
   50.5149  -25.6655 -105.5943 O   0  0  0  0  0  0  0  0  0  0  0  0
   49.2414  -26.4321 -103.7940 C   0  0  1  0  0  0  0  0  0  0  0  0
   49.2820  -27.4815 -102.8283 O   0  0  0  0  0  0  0  0  0  0  0  0
   50.0666  -25.2739 -103.3253 C   0  0  1  0  0  0  0  0  0  0  0  0
   51.1459  -25.7337 -102.4857 O   0  0  0  0  0  0  0  0  0  0  0  0
   50.6434  -24.6082 -104.6106 C   0  0  2  0  0  0  0  0  0  0  0  0
   49.5355  -23.3308 -111.7617 O   0  0  0  0  0  0  0  0  0  0  0  0
   47.6045  -20.3158 -103.8761 N   0  0  0  0  0  0  0  0  0  0  0  0
   48.0547  -21.1819 -102.9353 C   0  0  0  0  0  0  0  0  0  0  0  0
   48.8607  -22.2172 -103.2511 N   0  0  0  0  0  0  0  0  0  0  0  0
   49.1733  -22.4758 -104.5313 C   0  0  0  0  0  0  0  0  0  0  0  0
   48.6818  -21.6032 -105.5702 C   0  0  0  0  0  0  0  0  0  0  0  0
   47.8783  -20.4885 -105.1866 C   0  0  0  0  0  0  0  0  0  0  0  0
   47.3835  -19.6086 -106.1277 N   0  0  0  0  0  0  0  0  0  0  0  0
   49.1282  -22.0821 -106.7373 N   0  0  0  0  0  0  0  0  0  0  0  0
   49.8284  -23.1541 -106.5136 C   0  0  0  0  0  0  0  0  0  0  0  0
   49.8983  -23.4431 -105.1708 N   0  0  0  0  0  0  0  0  0  0  0  0
  2  1  1  6  0  0  0
  2  3  1  0  0  0  0
  2  5  1  0  0  0  0
  3  4  1  0  0  0  0
  3 17  1  0  0  0  0
  5  6  1  0  0  0  0
  7  6  1  6  0  0  0
  7  8  1  0  0  0  0
  7  9  1  0  0  0  0
 10  9  1  6  0  0  0
 10 11  1  0  0  0  0
 10 12  1  0  0  0  0
 11 16  1  0  0  0  0
 12 13  1  1  0  0  0
 12 14  1  0  0  0  0
 14 15  1  1  0  0  0
 14 16  1  0  0  0  0
 16 27  1  6  0  0  0
 18 19  2  0  0  0  0
 18 23  1  0  0  0  0
 19 20  1  0  0  0  0
 20 21  2  0  0  0  0
 21 22  1  0  0  0  0
 21 27  1  0  0  0  0
 22 23  2  0  0  0  0
 22 25  1  0  0  0  0
 23 24  1  0  0  0  0
 25 26  2  0  0  0  0
 26 27  1  0  0  0  0
M  END
>  <CHROM.1>
-28.87403607,-63.25730283,-167.40006295,-70.73082550,-94.22052409,47.50544612
146.03793401,48.97138494,-24.33691913,-106.43488578,2.22395665,1.30992479
-2.27097936

>  <Name>
ligand

>  <RI>
0

>  <Rbt.Current_Directory>
/home/itssahil/PROJECTS/Mol_Feturizer/New_Systems/rnas/4L81

>  <Rbt.Executable>
rbdock ($Id: //depot/dev/client3/rdock/2013.1/src/exe/rbdock.cxx#4 $)

>  <Rbt.Library>
libRbt.so (2013.1, Build901 2013/11/27)

>  <Rbt.Parameter_File>
/export/apps/rDock/src/rDock_2013.1_src/data/scripts/dock_solv.prm

>  <Rbt.Receptor>
prm/pocket_docking_8.prm

>  <SCORE>
-11.7135

>  <SCORE.INTER>
-9.14135

>  <SCORE.INTER.CONST>
1

>  <SCORE.INTER.POLAR>
0

>  <SCORE.INTER.ROT>
7

>  <SCORE.INTER.SOLV>
8.28619

>  <SCORE.INTER.VDW>
-17.123

>  <SCORE.INTER.norm>
-0.338568

>  <SCORE.INTRA>
-2.57216

>  <SCORE.INTRA.DIHEDRAL>
-2.05024

>  <SCORE.INTRA.DIHEDRAL.0>
8.34559

>  <SCORE.INTRA.POLAR>
0

>  <SCORE.INTRA.POLAR.0>
0

>  <SCORE.INTRA.REPUL>
0

>  <SCORE.INTRA.REPUL.0>
0

>  <SCORE.INTRA.SOLV>
-0.234784

>  <SCORE.INTRA.SOLV.lig_0>
-48.829

>  <SCORE.INTRA.VDW>
-1.42964

>  <SCORE.INTRA.VDW.0>
-1.77092

>  <SCORE.INTRA.norm>
-0.095265

>  <SCORE.RESTR>
0

>  <SCORE.RESTR.CAVITY>
0

>  <SCORE.RESTR.norm>
0

>  <SCORE.SYSTEM>
0

>  <SCORE.SYSTEM.CONST>
0

>  <SCORE.SYSTEM.DIHEDRAL>
0

>  <SCORE.SYSTEM.SOLV>
0

>  <SCORE.SYSTEM.norm>
0

>  <SCORE.heavy>
27

>  <SCORE.norm>
-0.433833

>  <RMSD>
7.894

$$$$
ligand
 OpenBabel11021811503D
libRbt.so/2013.1/901 2013/11/27
 27 29  0  0  0  0  0  0  0  0999 V2000
   44.6502  -29.6687 -101.9261 N   0  0  0  0  0  0  0  0  0  0  0  0
   44.1372  -30.6464 -102.8924 C   0  0  2  0  0  0  0  0  0  0  0  0
   43.2191  -31.6214 -102.1857 C   0  0  0  0  0  0  0  0  0  0  0  0
   42.8953  -31.4283 -101.0235 O   0  0  0  0  0  0  0  0  0  0  0  0
   45.2787  -31.4305 -103.5537 C   0  0  0  0  0  0  0  0  0  0  0  0
   46.0740  -30.5377 -104.4956 C   0  0  0  0  0  0  0  0  0  0  0  0
   45.0887  -29.9181 -105.9129 S   0  0  2  0  0  0  0  0  0  0  0  0
   45.4039  -31.1347 -107.2321 C   0  0  0  0  0  0  0  0  0  0  0  0
   46.2613  -28.6570 -106.4063 C   0  0  0  0  0  0  0  0  0  0  0  0
   46.5345  -27.6323 -105.3376 C   0  0  1  0  0  0  0  0  0  0  0  0
   47.4411  -26.6582 -105.8817 O   0  0  0  0  0  0  0  0  0  0  0  0
   45.2301  -26.9572 -105.1942 C   0  0  1  0  0  0  0  0  0  0  0  0
   44.5229  -27.5116 -104.0861 O   0  0  0  0  0  0  0  0  0  0  0  0
   45.6286  -25.5458 -104.8919 C   0  0  1  0  0  0  0  0  0  0  0  0
   45.8249  -25.3727 -103.4731 O   0  0  0  0  0  0  0  0  0  0  0  0
   46.9719  -25.3070 -105.6445 C   0  0  2  0  0  0  0  0  0  0  0  0
   42.7702  -32.5865 -102.7789 O   0  0  0  0  0  0  0  0  0  0  0  0
   45.0262  -21.5276 -108.8270 N   0  0  0  0  0  0  0  0  0  0  0  0
   44.7274  -21.7460 -107.5228 C   0  0  0  0  0  0  0  0  0  0  0  0
   45.3282  -22.7223 -106.8107 N   0  0  0  0  0  0  0  0  0  0  0  0
   46.1840  -23.5725 -107.4008 C   0  0  0  0  0  0  0  0  0  0  0  0
   46.5000  -23.4024 -108.7986 C   0  0  0  0  0  0  0  0  0  0  0  0
   45.8843  -22.3233 -109.4998 C   0  0  0  0  0  0  0  0  0  0  0  0
   46.1493  -22.0971 -110.8352 N   0  0  0  0  0  0  0  0  0  0  0  0
   47.3604  -24.3711 -109.1334 N   0  0  0  0  0  0  0  0  0  0  0  0
   47.5895  -25.1114 -108.0899 C   0  0  0  0  0  0  0  0  0  0  0  0
   46.8978  -24.6636 -106.9887 N   0  0  0  0  0  0  0  0  0  0  0  0
  2  1  1  1  0  0  0
  2  3  1  0  0  0  0
  2  5  1  0  0  0  0
  3  4  1  0  0  0  0
  3 17  1  0  0  0  0
  5  6  1  0  0  0  0
  7  6  1  1  0  0  0
  7  8  1  0  0  0  0
  7  9  1  0  0  0  0
 10  9  1  6  0  0  0
 10 11  1  0  0  0  0
 10 12  1  0  0  0  0
 11 16  1  0  0  0  0
 12 13  1  1  0  0  0
 12 14  1  0  0  0  0
 14 15  1  1  0  0  0
 14 16  1  0  0  0  0
 16 27  1  6  0  0  0
 18 19  2  0  0  0  0
 18 23  1  0  0  0  0
 19 20  1  0  0  0  0
 20 21  2  0  0  0  0
 21 22  1  0  0  0  0
 21 27  1  0  0  0  0
 22 23  2  0  0  0  0
 22 25  1  0  0  0  0
 23 24  1  0  0  0  0
 25 26  2  0  0  0  0
 26 27  1  0  0  0  0
M  END
>  <CHROM.1>
8.00908813,-70.15076393,-63.73189379,-93.30406731,-59.96385082,-177.66108284
159.04946904,45.49068714,-27.08601330,-105.72511541,2.11573859,-1.17172568
3.07307442

>  <Name>
ligand

>  <RI>
0

>  <Rbt.Current_Directory>
/home/itssahil/PROJECTS/Mol_Feturizer/New_Systems/rnas/4L81

>  <Rbt.Executable>
rbdock ($Id: //depot/dev/client3/rdock/2013.1/src/exe/rbdock.cxx#4 $)

>  <Rbt.Library>
libRbt.so (2013.1, Build901 2013/11/27)

>  <Rbt.Parameter_File>
/export/apps/rDock/src/rDock_2013.1_src/data/scripts/dock_solv.prm

>  <Rbt.Receptor>
prm/pocket_docking_8.prm

>  <SCORE>
-11.9594

>  <SCORE.INTER>
-11.052

>  <SCORE.INTER.CONST>
1

>  <SCORE.INTER.POLAR>
0

>  <SCORE.INTER.ROT>
7

>  <SCORE.INTER.SOLV>
13.0453

>  <SCORE.INTER.VDW>
-19.9831

>  <SCORE.INTER.norm>
-0.409333

>  <SCORE.INTRA>
-0.907435

>  <SCORE.INTRA.DIHEDRAL>
-3.02724

>  <SCORE.INTRA.DIHEDRAL.0>
8.34559

>  <SCORE.INTRA.POLAR>
0

>  <SCORE.INTRA.POLAR.0>
0

>  <SCORE.INTRA.REPUL>
0

>  <SCORE.INTRA.REPUL.0>
0

>  <SCORE.INTRA.SOLV>
1.62148

>  <SCORE.INTRA.SOLV.lig_0>
-48.829

>  <SCORE.INTRA.VDW>
-0.204553

>  <SCORE.INTRA.VDW.0>
-1.77092

>  <SCORE.INTRA.norm>
-0.0336087

>  <SCORE.RESTR>
0

>  <SCORE.RESTR.CAVITY>
0

>  <SCORE.RESTR.norm>
0

>  <SCORE.SYSTEM>
0

>  <SCORE.SYSTEM.CONST>
0

>  <SCORE.SYSTEM.DIHEDRAL>
0

>  <SCORE.SYSTEM.SOLV>
0

>  <SCORE.SYSTEM.norm>
0

>  <SCORE.heavy>
27

>  <SCORE.norm>
-0.442942

>  <RMSD>
7.925

$$$$
ligand
 OpenBabel11021811503D
libRbt.so/2013.1/901 2013/11/27
 27 29  0  0  0  0  0  0  0  0999 V2000
   47.4330  -28.6427 -101.2916 N   0  0  0  0  0  0  0  0  0  0  0  0
   46.0062  -28.3099 -101.3707 C   0  0  2  0  0  0  0  0  0  0  0  0
   45.1836  -29.5089 -100.9481 C   0  0  0  0  0  0  0  0  0  0  0  0
   44.0070  -29.3721 -100.6486 O   0  0  0  0  0  0  0  0  0  0  0  0
   45.6037  -27.9101 -102.7967 C   0  0  0  0  0  0  0  0  0  0  0  0
   46.0891  -26.5047 -103.1223 C   0  0  0  0  0  0  0  0  0  0  0  0
   45.6685  -25.9679 -104.8248 S   0  0  2  0  0  0  0  0  0  0  0  0
   44.1563  -26.9045 -105.2195 C   0  0  0  0  0  0  0  0  0  0  0  0
   46.8701  -27.0148 -105.6427 C   0  0  0  0  0  0  0  0  0  0  0  0
   46.8225  -26.9322 -107.1453 C   0  0  1  0  0  0  0  0  0  0  0  0
   46.7275  -25.5443 -107.5081 O   0  0  0  0  0  0  0  0  0  0  0  0
   48.1738  -27.3767 -107.5378 C   0  0  1  0  0  0  0  0  0  0  0  0
   48.1392  -28.7578 -107.8941 O   0  0  0  0  0  0  0  0  0  0  0  0
   48.4485  -26.5426 -108.7506 C   0  0  1  0  0  0  0  0  0  0  0  0
   47.9386  -27.1931 -109.9331 O   0  0  0  0  0  0  0  0  0  0  0  0
   47.7004  -25.1946 -108.5245 C   0  0  2  0  0  0  0  0  0  0  0  0
   45.6781  -30.6225 -100.9351 O   0  0  0  0  0  0  0  0  0  0  0  0
   51.2971  -23.3808 -105.0645 N   0  0  0  0  0  0  0  0  0  0  0  0
   50.8313  -24.6482 -105.1861 C   0  0  0  0  0  0  0  0  0  0  0  0
   49.9417  -24.9889 -106.1419 N   0  0  0  0  0  0  0  0  0  0  0  0
   49.4183  -24.0561 -106.9540 C   0  0  0  0  0  0  0  0  0  0  0  0
   49.8551  -22.6861 -106.8324 C   0  0  0  0  0  0  0  0  0  0  0  0
   50.8383  -22.3797 -105.8451 C   0  0  0  0  0  0  0  0  0  0  0  0
   51.3076  -21.0922 -105.6815 N   0  0  0  0  0  0  0  0  0  0  0  0
   49.1833  -21.9713 -107.7427 N   0  0  0  0  0  0  0  0  0  0  0  0
   48.3827  -22.7621 -108.3932 C   0  0  0  0  0  0  0  0  0  0  0  0
   48.4883  -24.0620 -107.9565 N   0  0  0  0  0  0  0  0  0  0  0  0
  2  1  1  6  0  0  0
  2  3  1  0  0  0  0
  2  5  1  0  0  0  0
  3  4  1  0  0  0  0
  3 17  1  0  0  0  0
  5  6  1  0  0  0  0
  7  6  1  1  0  0  0
  7  8  1  0  0  0  0
  7  9  1  0  0  0  0
 10  9  1  1  0  0  0
 10 11  1  0  0  0  0
 10 12  1  0  0  0  0
 11 16  1  0  0  0  0
 12 13  1  6  0  0  0
 12 14  1  0  0  0  0
 14 15  1  6  0  0  0
 14 16  1  0  0  0  0
 16 27  1  1  0  0  0
 18 19  2  0  0  0  0
 18 23  1  0  0  0  0
 19 20  1  0  0  0  0
 20 21  2  0  0  0  0
 21 22  1  0  0  0  0
 21 27  1  0  0  0  0
 22 23  2  0  0  0  0
 22 25  1  0  0  0  0
 23 24  1  0  0  0  0
 25 26  2  0  0  0  0
 26 27  1  0  0  0  0
M  END
>  <CHROM.1>
163.40306259,-75.45118096,179.01189688,27.82292272,177.25250548,44.93613739
71.84709972,47.60890073,-26.03958585,-105.49406171,-2.45455366,-0.89236200
-1.56106844

>  <Name>
ligand

>  <RI>
0

>  <Rbt.Current_Directory>
/home/itssahil/PROJECTS/Mol_Feturizer/New_Systems/rnas/4L81

>  <Rbt.Executable>
rbdock ($Id: //depot/dev/client3/rdock/2013.1/src/exe/rbdock.cxx#4 $)

>  <Rbt.Library>
libRbt.so (2013.1, Build901 2013/11/27)

>  <Rbt.Parameter_File>
/export/apps/rDock/src/rDock_2013.1_src/data/scripts/dock_solv.prm

>  <Rbt.Receptor>
prm/pocket_docking_7.prm

>  <SCORE>
-13.4282

>  <SCORE.INTER>
-12.4331

>  <SCORE.INTER.CONST>
1

>  <SCORE.INTER.POLAR>
0

>  <SCORE.INTER.ROT>
7

>  <SCORE.INTER.SOLV>
12.3252

>  <SCORE.INTER.VDW>
-20.6638

>  <SCORE.INTER.norm>
-0.460486

>  <SCORE.INTRA>
-0.995042

>  <SCORE.INTRA.DIHEDRAL>
-2.14197

>  <SCORE.INTRA.DIHEDRAL.0>
8.34559

>  <SCORE.INTRA.POLAR>
0

>  <SCORE.INTRA.POLAR.0>
0

>  <SCORE.INTRA.REPUL>
0

>  <SCORE.INTRA.REPUL.0>
0

>  <SCORE.INTRA.SOLV>
-0.657348

>  <SCORE.INTRA.SOLV.lig_0>
-48.829

>  <SCORE.INTRA.VDW>
0.404616

>  <SCORE.INTRA.VDW.0>
-1.77092

>  <SCORE.INTRA.norm>
-0.0368534

>  <SCORE.RESTR>
0

>  <SCORE.RESTR.CAVITY>
0

>  <SCORE.RESTR.norm>
0

>  <SCORE.SYSTEM>
0

>  <SCORE.SYSTEM.CONST>
0

>  <SCORE.SYSTEM.DIHEDRAL>
0

>  <SCORE.SYSTEM.SOLV>
0

>  <SCORE.SYSTEM.norm>
0

>  <SCORE.heavy>
27

>  <SCORE.norm>
-0.497339

>  <RMSD>
7.932

$$$$
ligand
 OpenBabel11021811503D
libRbt.so/2013.1/901 2013/11/27
 27 29  0  0  0  0  0  0  0  0999 V2000
   46.9431  -28.8361 -100.1388 N   0  0  0  0  0  0  0  0  0  0  0  0
   46.4899  -29.8723 -101.0733 C   0  0  2  0  0  0  0  0  0  0  0  0
   47.5872  -30.8988 -101.2605 C   0  0  0  0  0  0  0  0  0  0  0  0
   48.6236  -30.8143 -100.6191 O   0  0  0  0  0  0  0  0  0  0  0  0
   46.1319  -29.2741 -102.4406 C   0  0  0  0  0  0  0  0  0  0  0  0
   45.1324  -28.1362 -102.2886 C   0  0  0  0  0  0  0  0  0  0  0  0
   44.4600  -27.5426 -103.8883 S   0  0  2  0  0  0  0  0  0  0  0  0
   43.9645  -29.0695 -104.7500 C   0  0  0  0  0  0  0  0  0  0  0  0
   46.0531  -27.2844 -104.6655 C   0  0  0  0  0  0  0  0  0  0  0  0
   45.9626  -26.8782 -106.1124 C   0  0  1  0  0  0  0  0  0  0  0  0
   45.4210  -25.5475 -106.1641 O   0  0  0  0  0  0  0  0  0  0  0  0
   47.3800  -26.7699 -106.5085 C   0  0  1  0  0  0  0  0  0  0  0  0
   47.7877  -27.9701 -107.1631 O   0  0  0  0  0  0  0  0  0  0  0  0
   47.3562  -25.6366 -107.4869 C   0  0  1  0  0  0  0  0  0  0  0  0
   47.0682  -26.1249 -108.8135 O   0  0  0  0  0  0  0  0  0  0  0  0
   46.2166  -24.6844 -107.0151 C   0  0  2  0  0  0  0  0  0  0  0  0
   47.4327  -31.8341 -102.0262 O   0  0  0  0  0  0  0  0  0  0  0  0
   46.1795  -19.4576 -106.0782 N   0  0  0  0  0  0  0  0  0  0  0  0
   45.6498  -20.1117 -107.1410 C   0  0  0  0  0  0  0  0  0  0  0  0
   45.6907  -21.4569 -107.2390 N   0  0  0  0  0  0  0  0  0  0  0  0
   46.3412  -22.1908 -106.3216 C   0  0  0  0  0  0  0  0  0  0  0  0
   46.9557  -21.5321 -105.1942 C   0  0  0  0  0  0  0  0  0  0  0  0
   46.8408  -20.1132 -105.1010 C   0  0  0  0  0  0  0  0  0  0  0  0
   47.3962  -19.4206 -104.0443 N   0  0  0  0  0  0  0  0  0  0  0  0
   47.5334  -22.4791 -104.4456 N   0  0  0  0  0  0  0  0  0  0  0  0
   47.3403  -23.6360 -105.0056 C   0  0  0  0  0  0  0  0  0  0  0  0
   46.6047  -23.5232 -106.1622 N   0  0  0  0  0  0  0  0  0  0  0  0
  2  1  1  1  0  0  0
  2  3  1  0  0  0  0
  2  5  1  0  0  0  0
  3  4  1  0  0  0  0
  3 17  1  0  0  0  0
  5  6  1  0  0  0  0
  7  6  1  1  0  0  0
  7  8  1  0  0  0  0
  7  9  1  0  0  0  0
 10  9  1  1  0  0  0
 10 11  1  0  0  0  0
 10 12  1  0  0  0  0
 11 16  1  0  0  0  0
 12 13  1  6  0  0  0
 12 14  1  0  0  0  0
 14 15  1  6  0  0  0
 14 16  1  0  0  0  0
 16 27  1  1  0  0  0
 18 19  2  0  0  0  0
 18 23  1  0  0  0  0
 19 20  1  0  0  0  0
 20 21  2  0  0  0  0
 21 22  1  0  0  0  0
 21 27  1  0  0  0  0
 22 23  2  0  0  0  0
 22 25  1  0  0  0  0
 23 24  1  0  0  0  0
 25 26  2  0  0  0  0
 26 27  1  0  0  0  0
M  END
>  <CHROM.1>
3.65316571,-53.45770202,-171.10427066,48.50876135,175.20667748,69.19305379
-119.98609784,46.44481410,-25.83109357,-104.72835056,-1.45087671,-1.44983126
-0.32209129

>  <Name>
ligand

>  <RI>
0

>  <Rbt.Current_Directory>
/home/itssahil/PROJECTS/Mol_Feturizer/New_Systems/rnas/4L81

>  <Rbt.Executable>
rbdock ($Id: //depot/dev/client3/rdock/2013.1/src/exe/rbdock.cxx#4 $)

>  <Rbt.Library>
libRbt.so (2013.1, Build901 2013/11/27)

>  <Rbt.Parameter_File>
/export/apps/rDock/src/rDock_2013.1_src/data/scripts/dock_solv.prm

>  <Rbt.Receptor>
prm/pocket_docking_8.prm

>  <SCORE>
-11.8222

>  <SCORE.INTER>
-10.7232

>  <SCORE.INTER.CONST>
1

>  <SCORE.INTER.POLAR>
0

>  <SCORE.INTER.ROT>
7

>  <SCORE.INTER.SOLV>
10.65

>  <SCORE.INTER.VDW>
-18.9654

>  <SCORE.INTER.norm>
-0.397154

>  <SCORE.INTRA>
-1.09906

>  <SCORE.INTRA.DIHEDRAL>
-4.2919

>  <SCORE.INTRA.DIHEDRAL.0>
8.34559

>  <SCORE.INTRA.POLAR>
0

>  <SCORE.INTRA.POLAR.0>
0

>  <SCORE.INTRA.REPUL>
0

>  <SCORE.INTRA.REPUL.0>
0

>  <SCORE.INTRA.SOLV>
-0.581372

>  <SCORE.INTRA.SOLV.lig_0>
-48.829

>  <SCORE.INTRA.VDW>
1.33757

>  <SCORE.INTRA.VDW.0>
-1.77092

>  <SCORE.INTRA.norm>
-0.0407061

>  <SCORE.RESTR>
0

>  <SCORE.RESTR.CAVITY>
0

>  <SCORE.RESTR.norm>
0

>  <SCORE.SYSTEM>
0

>  <SCORE.SYSTEM.CONST>
0

>  <SCORE.SYSTEM.DIHEDRAL>
0

>  <SCORE.SYSTEM.SOLV>
0

>  <SCORE.SYSTEM.norm>
0

>  <SCORE.heavy>
27

>  <SCORE.norm>
-0.43786

>  <RMSD>
8.100

$$$$
ligand
 OpenBabel11021811503D
libRbt.so/2013.1/901 2013/11/27
 27 29  0  0  0  0  0  0  0  0999 V2000
   47.1721  -29.8498 -101.8623 N   0  0  0  0  0  0  0  0  0  0  0  0
   46.5144  -28.6247 -101.3942 C   0  0  2  0  0  0  0  0  0  0  0  0
   45.4863  -28.9747 -100.3391 C   0  0  0  0  0  0  0  0  0  0  0  0
   44.3825  -29.3825 -100.6680 O   0  0  0  0  0  0  0  0  0  0  0  0
   45.8132  -27.8917 -102.5459 C   0  0  0  0  0  0  0  0  0  0  0  0
   46.7814  -27.6320 -103.6914 C   0  0  0  0  0  0  0  0  0  0  0  0
   45.9776  -26.9025 -105.1696 S   0  0  2  0  0  0  0  0  0  0  0  0
   44.8560  -28.2148 -105.7522 C   0  0  0  0  0  0  0  0  0  0  0  0
   47.3525  -27.1928 -106.2805 C   0  0  0  0  0  0  0  0  0  0  0  0
   47.0701  -26.8059 -107.7079 C   0  0  1  0  0  0  0  0  0  0  0  0
   46.8621  -25.3839 -107.7467 O   0  0  0  0  0  0  0  0  0  0  0  0
   48.3621  -27.0591 -108.3745 C   0  0  1  0  0  0  0  0  0  0  0  0
   48.3310  -28.3357 -109.0106 O   0  0  0  0  0  0  0  0  0  0  0  0
   48.4112  -25.9749 -109.4061 C   0  0  1  0  0  0  0  0  0  0  0  0
   47.7526  -26.4034 -110.6162 O   0  0  0  0  0  0  0  0  0  0  0  0
   47.6510  -24.7614 -108.7918 C   0  0  2  0  0  0  0  0  0  0  0  0
   45.7619  -28.8844  -99.1555 O   0  0  0  0  0  0  0  0  0  0  0  0
   51.2439  -23.4043 -105.1248 N   0  0  0  0  0  0  0  0  0  0  0  0
   50.7342  -24.6368 -105.3677 C   0  0  0  0  0  0  0  0  0  0  0  0
   49.8515  -24.8561 -106.3645 N   0  0  0  0  0  0  0  0  0  0  0  0
   49.3788  -23.8350 -107.0975 C   0  0  0  0  0  0  0  0  0  0  0  0
   49.8633  -22.4991 -106.8459 C   0  0  0  0  0  0  0  0  0  0  0  0
   50.8376  -22.3204 -105.8192 C   0  0  0  0  0  0  0  0  0  0  0  0
   51.3508  -21.0717 -105.5327 N   0  0  0  0  0  0  0  0  0  0  0  0
   49.2361  -21.6805 -107.6987 N   0  0  0  0  0  0  0  0  0  0  0  0
   48.4197  -22.3784 -108.4307 C   0  0  0  0  0  0  0  0  0  0  0  0
   48.4688  -23.7153 -108.1113 N   0  0  0  0  0  0  0  0  0  0  0  0
  2  1  1  6  0  0  0
  2  3  1  0  0  0  0
  2  5  1  0  0  0  0
  3  4  1  0  0  0  0
  3 17  1  0  0  0  0
  5  6  1  0  0  0  0
  7  6  1  1  0  0  0
  7  8  1  0  0  0  0
  7  9  1  0  0  0  0
 10  9  1  1  0  0  0
 10 11  1  0  0  0  0
 10 12  1  0  0  0  0
 11 16  1  0  0  0  0
 12 13  1  6  0  0  0
 12 14  1  0  0  0  0
 14 15  1  6  0  0  0
 14 16  1  0  0  0  0
 16 27  1  1  0  0  0
 18 19  2  0  0  0  0
 18 23  1  0  0  0  0
 19 20  1  0  0  0  0
 20 21  2  0  0  0  0
 21 22  1  0  0  0  0
 21 27  1  0  0  0  0
 22 23  2  0  0  0  0
 22 25  1  0  0  0  0
 23 24  1  0  0  0  0
 25 26  2  0  0  0  0
 26 27  1  0  0  0  0
M  END
>  <CHROM.1>
-81.00213461,-53.94253640,174.48663291,-65.53528724,175.96893166,64.27844575
58.72043439,47.75885344,-26.02112403,-105.68816661,-2.32610226,-0.92825299
-1.52837927

>  <Name>
ligand

>  <RI>
0

>  <Rbt.Current_Directory>
/home/itssahil/PROJECTS/Mol_Feturizer/New_Systems/rnas/4L81

>  <Rbt.Executable>
rbdock ($Id: //depot/dev/client3/rdock/2013.1/src/exe/rbdock.cxx#4 $)

>  <Rbt.Library>
libRbt.so (2013.1, Build901 2013/11/27)

>  <Rbt.Parameter_File>
/export/apps/rDock/src/rDock_2013.1_src/data/scripts/dock_solv.prm

>  <Rbt.Receptor>
prm/pocket_docking_8.prm

>  <SCORE>
-15.8646

>  <SCORE.INTER>
-12.4312

>  <SCORE.INTER.CONST>
1

>  <SCORE.INTER.POLAR>
0

>  <SCORE.INTER.ROT>
7

>  <SCORE.INTER.SOLV>
10.4967

>  <SCORE.INTER.VDW>
-20.0531

>  <SCORE.INTER.norm>
-0.460416

>  <SCORE.INTRA>
-3.43341

>  <SCORE.INTRA.DIHEDRAL>
-4.73165

>  <SCORE.INTRA.DIHEDRAL.0>
8.34559

>  <SCORE.INTRA.POLAR>
0

>  <SCORE.INTRA.POLAR.0>
0

>  <SCORE.INTRA.REPUL>
0

>  <SCORE.INTRA.REPUL.0>
0

>  <SCORE.INTRA.SOLV>
-0.55088

>  <SCORE.INTRA.SOLV.lig_0>
-48.829

>  <SCORE.INTRA.VDW>
-0.792142

>  <SCORE.INTRA.VDW.0>
-1.77092

>  <SCORE.INTRA.norm>
-0.127163

>  <SCORE.RESTR>
0

>  <SCORE.RESTR.CAVITY>
0

>  <SCORE.RESTR.norm>
0

>  <SCORE.SYSTEM>
0

>  <SCORE.SYSTEM.CONST>
0

>  <SCORE.SYSTEM.DIHEDRAL>
0

>  <SCORE.SYSTEM.SOLV>
0

>  <SCORE.SYSTEM.norm>
0

>  <SCORE.heavy>
27

>  <SCORE.norm>
-0.58758

>  <RMSD>
8.197

$$$$
ligand
 OpenBabel11021811503D
libRbt.so/2013.1/901 2013/11/27
 27 29  0  0  0  0  0  0  0  0999 V2000
   46.1105  -28.6189 -101.5118 N   0  0  0  0  0  0  0  0  0  0  0  0
   44.7772  -28.7298 -102.1140 C   0  0  2  0  0  0  0  0  0  0  0  0
   43.9957  -29.8215 -101.4138 C   0  0  0  0  0  0  0  0  0  0  0  0
   42.8436  -30.0602 -101.7430 O   0  0  0  0  0  0  0  0  0  0  0  0
   44.8652  -29.0640 -103.6093 C   0  0  0  0  0  0  0  0  0  0  0  0
   45.4825  -27.9100 -104.3865 C   0  0  0  0  0  0  0  0  0  0  0  0
   45.7813  -28.3024 -106.1529 S   0  0  2  0  0  0  0  0  0  0  0  0
   47.2521  -29.3772 -106.1212 C   0  0  0  0  0  0  0  0  0  0  0  0
   46.5771  -26.7469 -106.5479 C   0  0  0  0  0  0  0  0  0  0  0  0
   46.7232  -26.4993 -108.0258 C   0  0  1  0  0  0  0  0  0  0  0  0
   46.7473  -25.0770 -108.2346 O   0  0  0  0  0  0  0  0  0  0  0  0
   48.0879  -26.9871 -108.3034 C   0  0  1  0  0  0  0  0  0  0  0  0
   48.0261  -28.3162 -108.8184 O   0  0  0  0  0  0  0  0  0  0  0  0
   48.5562  -26.0468 -109.3704 C   0  0  1  0  0  0  0  0  0  0  0  0
   48.1656  -26.5303 -110.6723 O   0  0  0  0  0  0  0  0  0  0  0  0
   47.8573  -24.6846 -109.0808 C   0  0  2  0  0  0  0  0  0  0  0  0
   44.5191  -30.4916 -100.5409 O   0  0  0  0  0  0  0  0  0  0  0  0
   51.1437  -23.5086 -105.0790 N   0  0  0  0  0  0  0  0  0  0  0  0
   50.6437  -24.7247 -105.4092 C   0  0  0  0  0  0  0  0  0  0  0  0
   49.8455  -24.8962 -106.4837 N   0  0  0  0  0  0  0  0  0  0  0  0
   49.4462  -23.8430 -107.2150 C   0  0  0  0  0  0  0  0  0  0  0  0
   49.9214  -22.5236 -106.8744 C   0  0  0  0  0  0  0  0  0  0  0  0
   50.8080  -22.3951 -105.7641 C   0  0  0  0  0  0  0  0  0  0  0  0
   51.3079  -21.1645 -105.3895 N   0  0  0  0  0  0  0  0  0  0  0  0
   49.3762  -21.6664 -107.7455 N   0  0  0  0  0  0  0  0  0  0  0  0
   48.6170  -22.3266 -108.5684 C   0  0  0  0  0  0  0  0  0  0  0  0
   48.6257  -23.6747 -108.2960 N   0  0  0  0  0  0  0  0  0  0  0  0
  2  1  1  1  0  0  0
  2  3  1  0  0  0  0
  2  5  1  0  0  0  0
  3  4  1  0  0  0  0
  3 17  1  0  0  0  0
  5  6  1  0  0  0  0
  7  6  1  1  0  0  0
  7  8  1  0  0  0  0
  7  9  1  0  0  0  0
 10  9  1  1  0  0  0
 10 11  1  0  0  0  0
 10 12  1  0  0  0  0
 11 16  1  0  0  0  0
 12 13  1  6  0  0  0
 12 14  1  0  0  0  0
 14 15  1  6  0  0  0
 14 16  1  0  0  0  0
 16 27  1  1  0  0  0
 18 19  2  0  0  0  0
 18 23  1  0  0  0  0
 19 20  1  0  0  0  0
 20 21  2  0  0  0  0
 21 22  1  0  0  0  0
 21 27  1  0  0  0  0
 22 23  2  0  0  0  0
 22 25  1  0  0  0  0
 23 24  1  0  0  0  0
 25 26  2  0  0  0  0
 26 27  1  0  0  0  0
M  END
>  <CHROM.1>
178.41766134,-66.59623624,173.99586053,-75.43302098,-166.60814026,152.80691450
73.56979686,47.47280133,-26.28597694,-106.04647804,-2.63120048,-0.91692681
-1.65487750

>  <Name>
ligand

>  <RI>
0

>  <Rbt.Current_Directory>
/home/itssahil/PROJECTS/Mol_Feturizer/New_Systems/rnas/4L81

>  <Rbt.Executable>
rbdock ($Id: //depot/dev/client3/rdock/2013.1/src/exe/rbdock.cxx#4 $)

>  <Rbt.Library>
libRbt.so (2013.1, Build901 2013/11/27)

>  <Rbt.Parameter_File>
/export/apps/rDock/src/rDock_2013.1_src/data/scripts/dock_solv.prm

>  <Rbt.Receptor>
prm/pocket_docking_7.prm

>  <SCORE>
-13.4377

>  <SCORE.INTER>
-11.6759

>  <SCORE.INTER.CONST>
1

>  <SCORE.INTER.POLAR>
0

>  <SCORE.INTER.ROT>
7

>  <SCORE.INTER.SOLV>
13.3472

>  <SCORE.INTER.VDW>
-20.4997

>  <SCORE.INTER.norm>
-0.432441

>  <SCORE.INTRA>
-1.76176

>  <SCORE.INTRA.DIHEDRAL>
-1.40794

>  <SCORE.INTRA.DIHEDRAL.0>
8.34559

>  <SCORE.INTRA.POLAR>
0

>  <SCORE.INTRA.POLAR.0>
0

>  <SCORE.INTRA.REPUL>
0

>  <SCORE.INTRA.REPUL.0>
0

>  <SCORE.INTRA.SOLV>
-0.370814

>  <SCORE.INTRA.SOLV.lig_0>
-48.829

>  <SCORE.INTRA.VDW>
-0.872389

>  <SCORE.INTRA.VDW.0>
-1.77092

>  <SCORE.INTRA.norm>
-0.0652505

>  <SCORE.RESTR>
0

>  <SCORE.RESTR.CAVITY>
0

>  <SCORE.RESTR.norm>
0

>  <SCORE.SYSTEM>
0

>  <SCORE.SYSTEM.CONST>
0

>  <SCORE.SYSTEM.DIHEDRAL>
0

>  <SCORE.SYSTEM.SOLV>
0

>  <SCORE.SYSTEM.norm>
0

>  <SCORE.heavy>
27

>  <SCORE.norm>
-0.497691

>  <RMSD>
8.207

$$$$
ligand
 OpenBabel11021811503D
libRbt.so/2013.1/901 2013/11/27
 27 29  0  0  0  0  0  0  0  0999 V2000
   51.1716  -33.6975 -103.6971 N   0  0  0  0  0  0  0  0  0  0  0  0
   52.0092  -33.0425 -102.6862 C   0  0  2  0  0  0  0  0  0  0  0  0
   52.3793  -34.0428 -101.6114 C   0  0  0  0  0  0  0  0  0  0  0  0
   52.2351  -35.2397 -101.8100 O   0  0  0  0  0  0  0  0  0  0  0  0
   51.2775  -31.8616 -102.0339 C   0  0  0  0  0  0  0  0  0  0  0  0
   51.0819  -30.7284 -103.0312 C   0  0  0  0  0  0  0  0  0  0  0  0
   50.3910  -29.2073 -102.2748 S   0  0  2  0  0  0  0  0  0  0  0  0
   48.6142  -29.5714 -102.1008 C   0  0  0  0  0  0  0  0  0  0  0  0
   50.3375  -28.2617 -103.7952 C   0  0  0  0  0  0  0  0  0  0  0  0
   50.3257  -26.7713 -103.5817 C   0  0  1  0  0  0  0  0  0  0  0  0
   50.7368  -26.1464 -104.8094 O   0  0  0  0  0  0  0  0  0  0  0  0
   48.8883  -26.4776 -103.4223 C   0  0  1  0  0  0  0  0  0  0  0  0
   48.5671  -26.3952 -102.0347 O   0  0  0  0  0  0  0  0  0  0  0  0
   48.7623  -25.1274 -104.0572 C   0  0  1  0  0  0  0  0  0  0  0  0
   49.0365  -24.0911 -103.0916 O   0  0  0  0  0  0  0  0  0  0  0  0
   49.8268  -25.0853 -105.1944 C   0  0  2  0  0  0  0  0  0  0  0  0
   52.8539  -33.6652 -100.5545 O   0  0  0  0  0  0  0  0  0  0  0  0
   48.2320  -23.5421 -110.0186 N   0  0  0  0  0  0  0  0  0  0  0  0
   48.5435  -22.7558 -108.9591 C   0  0  0  0  0  0  0  0  0  0  0  0
   48.9792  -23.2761 -107.7927 N   0  0  0  0  0  0  0  0  0  0  0  0
   49.0343  -24.6060 -107.6144 C   0  0  0  0  0  0  0  0  0  0  0  0
   48.6723  -25.4818 -108.7027 C   0  0  0  0  0  0  0  0  0  0  0  0
   48.2701  -24.8889 -109.9365 C   0  0  0  0  0  0  0  0  0  0  0  0
   47.9200  -25.6673 -111.0210 N   0  0  0  0  0  0  0  0  0  0  0  0
   48.8082  -26.7390 -108.2648 N   0  0  0  0  0  0  0  0  0  0  0  0
   49.2046  -26.7143 -107.0272 C   0  0  0  0  0  0  0  0  0  0  0  0
   49.3689  -25.4266 -106.5729 N   0  0  0  0  0  0  0  0  0  0  0  0
  2  1  1  6  0  0  0
  2  3  1  0  0  0  0
  2  5  1  0  0  0  0
  3  4  1  0  0  0  0
  3 17  1  0  0  0  0
  5  6  1  0  0  0  0
  7  6  1  6  0  0  0
  7  8  1  0  0  0  0
  7  9  1  0  0  0  0
 10  9  1  6  0  0  0
 10 11  1  0  0  0  0
 10 12  1  0  0  0  0
 11 16  1  0  0  0  0
 12 13  1  1  0  0  0
 12 14  1  0  0  0  0
 14 15  1  1  0  0  0
 14 16  1  0  0  0  0
 16 27  1  6  0  0  0
 18 19  2  0  0  0  0
 18 23  1  0  0  0  0
 19 20  1  0  0  0  0
 20 21  2  0  0  0  0
 21 22  1  0  0  0  0
 21 27  1  0  0  0  0
 22 23  2  0  0  0  0
 22 25  1  0  0  0  0
 23 24  1  0  0  0  0
 25 26  2  0  0  0  0
 26 27  1  0  0  0  0
M  END
>  <CHROM.1>
15.66237949,-68.28842393,-173.25246874,-78.26121059,-157.66458270,160.69296868
-147.28980588,49.89200834,-27.87733885,-104.77067725,-0.37273370,1.27082758
-1.82911663

>  <Name>
ligand

>  <RI>
0

>  <Rbt.Current_Directory>
/home/itssahil/PROJECTS/Mol_Feturizer/New_Systems/rnas/4L81

>  <Rbt.Executable>
rbdock ($Id: //depot/dev/client3/rdock/2013.1/src/exe/rbdock.cxx#4 $)

>  <Rbt.Library>
libRbt.so (2013.1, Build901 2013/11/27)

>  <Rbt.Parameter_File>
/export/apps/rDock/src/rDock_2013.1_src/data/scripts/dock_solv.prm

>  <Rbt.Receptor>
prm/pocket_docking_7.prm

>  <SCORE>
-12.7124

>  <SCORE.INTER>
-11.7944

>  <SCORE.INTER.CONST>
1

>  <SCORE.INTER.POLAR>
0

>  <SCORE.INTER.ROT>
7

>  <SCORE.INTER.SOLV>
12.4224

>  <SCORE.INTER.VDW>
-20.2704

>  <SCORE.INTER.norm>
-0.436829

>  <SCORE.INTRA>
-0.918064

>  <SCORE.INTRA.DIHEDRAL>
-1.14862

>  <SCORE.INTRA.DIHEDRAL.0>
8.34559

>  <SCORE.INTRA.POLAR>
0

>  <SCORE.INTRA.POLAR.0>
0

>  <SCORE.INTRA.REPUL>
0

>  <SCORE.INTRA.REPUL.0>
0

>  <SCORE.INTRA.SOLV>
-0.430178

>  <SCORE.INTRA.SOLV.lig_0>
-48.829

>  <SCORE.INTRA.VDW>
-0.128665

>  <SCORE.INTRA.VDW.0>
-1.77092

>  <SCORE.INTRA.norm>
-0.0340024

>  <SCORE.RESTR>
0

>  <SCORE.RESTR.CAVITY>
0

>  <SCORE.RESTR.norm>
0

>  <SCORE.SYSTEM>
0

>  <SCORE.SYSTEM.CONST>
0

>  <SCORE.SYSTEM.DIHEDRAL>
0

>  <SCORE.SYSTEM.SOLV>
0

>  <SCORE.SYSTEM.norm>
0

>  <SCORE.heavy>
27

>  <SCORE.norm>
-0.470831

>  <RMSD>
8.306

$$$$
ligand
 OpenBabel11021811503D
libRbt.so/2013.1/901 2013/11/27
 27 29  0  0  0  0  0  0  0  0999 V2000
   47.6346  -29.2589 -103.4099 N   0  0  0  0  0  0  0  0  0  0  0  0
   47.7686  -27.7994 -103.4775 C   0  0  2  0  0  0  0  0  0  0  0  0
   48.8381  -27.3447 -102.5068 C   0  0  0  0  0  0  0  0  0  0  0  0
   49.4711  -26.3227 -102.7245 O   0  0  0  0  0  0  0  0  0  0  0  0
   46.4488  -27.1001 -103.1245 C   0  0  0  0  0  0  0  0  0  0  0  0
   46.4679  -25.6472 -103.5783 C   0  0  0  0  0  0  0  0  0  0  0  0
   45.7116  -25.3929 -105.2296 S   0  0  2  0  0  0  0  0  0  0  0  0
   44.3058  -26.5517 -105.2520 C   0  0  0  0  0  0  0  0  0  0  0  0
   46.9064  -26.3815 -106.1261 C   0  0  0  0  0  0  0  0  0  0  0  0
   46.8347  -26.2108 -107.6203 C   0  0  1  0  0  0  0  0  0  0  0  0
   46.7935  -24.8016 -107.9020 O   0  0  0  0  0  0  0  0  0  0  0  0
   48.1580  -26.6889 -108.0654 C   0  0  1  0  0  0  0  0  0  0  0  0
   48.0568  -28.0446 -108.4984 O   0  0  0  0  0  0  0  0  0  0  0  0
   48.4463  -25.7990 -109.2346 C   0  0  1  0  0  0  0  0  0  0  0  0
   47.8869  -26.3584 -110.4411 O   0  0  0  0  0  0  0  0  0  0  0  0
   47.7618  -24.4357 -108.9171 C   0  0  2  0  0  0  0  0  0  0  0  0
   49.0529  -27.9749 -101.4862 O   0  0  0  0  0  0  0  0  0  0  0  0
   51.1352  -22.8674 -105.1279 N   0  0  0  0  0  0  0  0  0  0  0  0
   50.5404  -24.0788 -105.2567 C   0  0  0  0  0  0  0  0  0  0  0  0
   49.7299  -24.3646 -106.2971 N   0  0  0  0  0  0  0  0  0  0  0  0
   49.4143  -23.4207 -107.1987 C   0  0  0  0  0  0  0  0  0  0  0  0
   49.9926  -22.1041 -107.0771 C   0  0  0  0  0  0  0  0  0  0  0  0
   50.8878  -21.8613 -105.9931 C   0  0  0  0  0  0  0  0  0  0  0  0
   51.4838  -20.6283 -105.8229 N   0  0  0  0  0  0  0  0  0  0  0  0
   49.5160  -21.3647 -108.0855 N   0  0  0  0  0  0  0  0  0  0  0  0
   48.7061  -22.0919 -108.7960 C   0  0  0  0  0  0  0  0  0  0  0  0
   48.6085  -23.3719 -108.3025 N   0  0  0  0  0  0  0  0  0  0  0  0
  2  1  1  1  0  0  0
  2  3  1  0  0  0  0
  2  5  1  0  0  0  0
  3  4  1  0  0  0  0
  3 17  1  0  0  0  0
  5  6  1  0  0  0  0
  7  6  1  1  0  0  0
  7  8  1  0  0  0  0
  7  9  1  0  0  0  0
 10  9  1  1  0  0  0
 10 11  1  0  0  0  0
 10 12  1  0  0  0  0
 11 16  1  0  0  0  0
 12 13  1  6  0  0  0
 12 14  1  0  0  0  0
 14 15  1  6  0  0  0
 14 16  1  0  0  0  0
 16 27  1  1  0  0  0
 18 19  2  0  0  0  0
 18 23  1  0  0  0  0
 19 20  1  0  0  0  0
 20 21  2  0  0  0  0
 21 22  1  0  0  0  0
 21 27  1  0  0  0  0
 22 23  2  0  0  0  0
 22 25  1  0  0  0  0
 23 24  1  0  0  0  0
 25 26  2  0  0  0  0
 26 27  1  0  0  0  0
M  END
>  <CHROM.1>
152.06511580,-163.54670974,94.68275976,37.36443774,-167.41010305,47.77262088
61.34573869,48.21904420,-25.21459133,-106.07219783,2.10590401,0.85026599
1.97425682

>  <Name>
ligand

>  <RI>
0

>  <Rbt.Current_Directory>
/home/itssahil/PROJECTS/Mol_Feturizer/New_Systems/rnas/4L81

>  <Rbt.Executable>
rbdock ($Id: //depot/dev/client3/rdock/2013.1/src/exe/rbdock.cxx#4 $)

>  <Rbt.Library>
libRbt.so (2013.1, Build901 2013/11/27)

>  <Rbt.Parameter_File>
/export/apps/rDock/src/rDock_2013.1_src/data/scripts/dock_solv.prm

>  <Rbt.Receptor>
prm/pocket_docking_8.prm

>  <SCORE>
-10.4284

>  <SCORE.INTER>
-10.2357

>  <SCORE.INTER.CONST>
1

>  <SCORE.INTER.POLAR>
0

>  <SCORE.INTER.ROT>
7

>  <SCORE.INTER.SOLV>
11.4637

>  <SCORE.INTER.VDW>
-18.9117

>  <SCORE.INTER.norm>
-0.379099

>  <SCORE.INTRA>
-0.192675

>  <SCORE.INTRA.DIHEDRAL>
1.34795

>  <SCORE.INTRA.DIHEDRAL.0>
8.34559

>  <SCORE.INTRA.POLAR>
0

>  <SCORE.INTRA.POLAR.0>
0

>  <SCORE.INTRA.REPUL>
0

>  <SCORE.INTRA.REPUL.0>
0

>  <SCORE.INTRA.SOLV>
-0.556034

>  <SCORE.INTRA.SOLV.lig_0>
-48.829

>  <SCORE.INTRA.VDW>
-0.588634

>  <SCORE.INTRA.VDW.0>
-1.77092

>  <SCORE.INTRA.norm>
-0.00713609

>  <SCORE.RESTR>
0

>  <SCORE.RESTR.CAVITY>
0

>  <SCORE.RESTR.norm>
0

>  <SCORE.SYSTEM>
0

>  <SCORE.SYSTEM.CONST>
0

>  <SCORE.SYSTEM.DIHEDRAL>
0

>  <SCORE.SYSTEM.SOLV>
0

>  <SCORE.SYSTEM.norm>
0

>  <SCORE.heavy>
27

>  <SCORE.norm>
-0.386235

>  <RMSD>
8.406

$$$$
ligand
 OpenBabel11021811503D
libRbt.so/2013.1/901 2013/11/27
 27 29  0  0  0  0  0  0  0  0999 V2000
   47.1646  -29.9800 -101.7556 N   0  0  0  0  0  0  0  0  0  0  0  0
   46.2272  -29.1183 -101.0266 C   0  0  2  0  0  0  0  0  0  0  0  0
   45.3154  -29.9731 -100.1718 C   0  0  0  0  0  0  0  0  0  0  0  0
   44.2381  -30.3492 -100.6086 O   0  0  0  0  0  0  0  0  0  0  0  0
   45.3686  -28.2863 -101.9890 C   0  0  0  0  0  0  0  0  0  0  0  0
   46.2440  -27.4286 -102.8917 C   0  0  0  0  0  0  0  0  0  0  0  0
   45.3121  -26.6141 -104.2450 S   0  0  2  0  0  0  0  0  0  0  0  0
   44.4850  -27.9936 -105.1008 C   0  0  0  0  0  0  0  0  0  0  0  0
   46.7205  -26.4110 -105.3330 C   0  0  0  0  0  0  0  0  0  0  0  0
   46.3564  -25.9273 -106.7115 C   0  0  1  0  0  0  0  0  0  0  0  0
   45.9030  -24.5678 -106.5967 O   0  0  0  0  0  0  0  0  0  0  0  0
   47.6639  -25.8772 -107.3939 C   0  0  1  0  0  0  0  0  0  0  0  0
   47.8476  -27.0632 -108.1653 O   0  0  0  0  0  0  0  0  0  0  0  0
   47.5096  -24.6960 -108.3011 C   0  0  1  0  0  0  0  0  0  0  0  0
   46.9201  -25.0995 -109.5545 O   0  0  0  0  0  0  0  0  0  0  0  0
   46.5575  -23.7077 -107.5631 C   0  0  2  0  0  0  0  0  0  0  0  0
   45.6621  -30.3199  -99.0563 O   0  0  0  0  0  0  0  0  0  0  0  0
   50.9145  -21.3129 -105.6975 N   0  0  0  0  0  0  0  0  0  0  0  0
   50.8464  -22.4415 -106.4456 C   0  0  0  0  0  0  0  0  0  0  0  0
   49.6695  -22.9260 -106.8940 N   0  0  0  0  0  0  0  0  0  0  0  0
   48.5107  -22.3494 -106.5361 C   0  0  0  0  0  0  0  0  0  0  0  0
   48.5340  -21.1691 -105.7062 C   0  0  0  0  0  0  0  0  0  0  0  0
   49.8028  -20.6585 -105.3003 C   0  0  0  0  0  0  0  0  0  0  0  0
   49.8982  -19.5280 -104.5144 N   0  0  0  0  0  0  0  0  0  0  0  0
   47.2636  -20.8046 -105.4959 N   0  0  0  0  0  0  0  0  0  0  0  0
   46.4778  -21.6436 -106.1026 C   0  0  0  0  0  0  0  0  0  0  0  0
   47.1893  -22.6146 -106.7679 N   0  0  0  0  0  0  0  0  0  0  0  0
  2  1  1  6  0  0  0
  2  3  1  0  0  0  0
  2  5  1  0  0  0  0
  3  4  1  0  0  0  0
  3 17  1  0  0  0  0
  5  6  1  0  0  0  0
  7  6  1  1  0  0  0
  7  8  1  0  0  0  0
  7  9  1  0  0  0  0
 10  9  1  1  0  0  0
 10 11  1  0  0  0  0
 10 12  1  0  0  0  0
 11 16  1  0  0  0  0
 12 13  1  6  0  0  0
 12 14  1  0  0  0  0
 14 15  1  6  0  0  0
 14 16  1  0  0  0  0
 16 27  1  1  0  0  0
 18 19  2  0  0  0  0
 18 23  1  0  0  0  0
 19 20  1  0  0  0  0
 20 21  2  0  0  0  0
 21 22  1  0  0  0  0
 21 27  1  0  0  0  0
 22 23  2  0  0  0  0
 22 25  1  0  0  0  0
 23 24  1  0  0  0  0
 25 26  2  0  0  0  0
 26 27  1  0  0  0  0
M  END
>  <CHROM.1>
-92.61161507,-58.04339283,170.68415238,-55.52790274,171.67165178,68.96504089
111.00556308,47.05704868,-25.33393311,-104.97657130,-2.34636566,-1.06280008
-1.32357050

>  <Name>
ligand

>  <RI>
0

>  <Rbt.Current_Directory>
/home/itssahil/PROJECTS/Mol_Feturizer/New_Systems/rnas/4L81

>  <Rbt.Executable>
rbdock ($Id: //depot/dev/client3/rdock/2013.1/src/exe/rbdock.cxx#4 $)

>  <Rbt.Library>
libRbt.so (2013.1, Build901 2013/11/27)

>  <Rbt.Parameter_File>
/export/apps/rDock/src/rDock_2013.1_src/data/scripts/dock_solv.prm

>  <Rbt.Receptor>
prm/pocket_docking_8.prm

>  <SCORE>
-12.6711

>  <SCORE.INTER>
-10.7402

>  <SCORE.INTER.CONST>
1

>  <SCORE.INTER.POLAR>
0

>  <SCORE.INTER.ROT>
7

>  <SCORE.INTER.SOLV>
6.73324

>  <SCORE.INTER.VDW>
-17.6712

>  <SCORE.INTER.norm>
-0.397784

>  <SCORE.INTRA>
-1.93089

>  <SCORE.INTRA.DIHEDRAL>
-3.9751

>  <SCORE.INTRA.DIHEDRAL.0>
8.34559

>  <SCORE.INTRA.POLAR>
0

>  <SCORE.INTRA.POLAR.0>
0

>  <SCORE.INTRA.REPUL>
0

>  <SCORE.INTRA.REPUL.0>
0

>  <SCORE.INTRA.SOLV>
-0.556294

>  <SCORE.INTRA.SOLV.lig_0>
-48.829

>  <SCORE.INTRA.VDW>
0.334804

>  <SCORE.INTRA.VDW.0>
-1.77092

>  <SCORE.INTRA.norm>
-0.0715146

>  <SCORE.RESTR>
0

>  <SCORE.RESTR.CAVITY>
0

>  <SCORE.RESTR.norm>
0

>  <SCORE.SYSTEM>
0

>  <SCORE.SYSTEM.CONST>
0

>  <SCORE.SYSTEM.DIHEDRAL>
0

>  <SCORE.SYSTEM.SOLV>
0

>  <SCORE.SYSTEM.norm>
0

>  <SCORE.heavy>
27

>  <SCORE.norm>
-0.469299

>  <RMSD>
8.468

$$$$
ligand
 OpenBabel11021811503D
libRbt.so/2013.1/901 2013/11/27
 27 29  0  0  0  0  0  0  0  0999 V2000
   51.0346  -21.1815 -107.6710 N   0  0  0  0  0  0  0  0  0  0  0  0
   49.5907  -20.9643 -107.5265 C   0  0  2  0  0  0  0  0  0  0  0  0
   49.3471  -19.6954 -106.7371 C   0  0  0  0  0  0  0  0  0  0  0  0
   50.0924  -19.3908 -105.8181 O   0  0  0  0  0  0  0  0  0  0  0  0
   48.9191  -22.1373 -106.7995 C   0  0  0  0  0  0  0  0  0  0  0  0
   47.4343  -21.8701 -106.5975 C   0  0  0  0  0  0  0  0  0  0  0  0
   46.5340  -21.5549 -108.1639 S   0  0  2  0  0  0  0  0  0  0  0  0
   44.8051  -21.3235 -107.6378 C   0  0  0  0  0  0  0  0  0  0  0  0
   46.4482  -23.2718 -108.6677 C   0  0  0  0  0  0  0  0  0  0  0  0
   47.5152  -23.6680 -109.6532 C   0  0  1  0  0  0  0  0  0  0  0  0
   48.4168  -24.5695 -108.9887 O   0  0  0  0  0  0  0  0  0  0  0  0
   46.7658  -24.4736 -110.6366 C   0  0  1  0  0  0  0  0  0  0  0  0
   46.4254  -23.6630 -111.7602 O   0  0  0  0  0  0  0  0  0  0  0  0
   47.7702  -25.5088 -111.0386 C   0  0  1  0  0  0  0  0  0  0  0  0
   48.5858  -25.0217 -112.1245 O   0  0  0  0  0  0  0  0  0  0  0  0
   48.6572  -25.7589 -109.7821 C   0  0  2  0  0  0  0  0  0  0  0  0
   48.4276  -18.9523 -107.0323 O   0  0  0  0  0  0  0  0  0  0  0  0
   45.5602  -27.8634 -106.0169 N   0  0  0  0  0  0  0  0  0  0  0  0
   45.5119  -26.6058 -106.5208 C   0  0  0  0  0  0  0  0  0  0  0  0
   46.3349  -26.2065 -107.5129 N   0  0  0  0  0  0  0  0  0  0  0  0
   47.2958  -27.0227 -107.9757 C   0  0  0  0  0  0  0  0  0  0  0  0
   47.4101  -28.3572 -107.4387 C   0  0  0  0  0  0  0  0  0  0  0  0
   46.4839  -28.7568 -106.4298 C   0  0  0  0  0  0  0  0  0  0  0  0
   46.5303  -30.0218 -105.8799 N   0  0  0  0  0  0  0  0  0  0  0  0
   48.4365  -28.9501 -108.0598 N   0  0  0  0  0  0  0  0  0  0  0  0
   48.9580  -28.1132 -108.9065 C   0  0  0  0  0  0  0  0  0  0  0  0
   48.2923  -26.9096 -108.9053 N   0  0  0  0  0  0  0  0  0  0  0  0
  2  1  1  1  0  0  0
  2  3  1  0  0  0  0
  2  5  1  0  0  0  0
  3  4  1  0  0  0  0
  3 17  1  0  0  0  0
  5  6  1  0  0  0  0
  7  6  1  1  0  0  0
  7  8  1  0  0  0  0
  7  9  1  0  0  0  0
 10  9  1  1  0  0  0
 10 11  1  0  0  0  0
 10 12  1  0  0  0  0
 11 16  1  0  0  0  0
 12 13  1  6  0  0  0
 12 14  1  0  0  0  0
 14 15  1  6  0  0  0
 14 16  1  0  0  0  0
 16 27  1  1  0  0  0
 18 19  2  0  0  0  0
 18 23  1  0  0  0  0
 19 20  1  0  0  0  0
 20 21  2  0  0  0  0
 21 22  1  0  0  0  0
 21 27  1  0  0  0  0
 22 23  2  0  0  0  0
 22 25  1  0  0  0  0
 23 24  1  0  0  0  0
 25 26  2  0  0  0  0
 26 27  1  0  0  0  0
M  END
>  <CHROM.1>
-36.24449270,177.30962771,57.45072998,178.30948646,-97.95556459,111.36205507
35.84810769,47.64624159,-24.25700107,-108.18792297,0.53622111,1.36178456
1.08493762

>  <Name>
ligand

>  <RI>
0

>  <Rbt.Current_Directory>
/home/itssahil/PROJECTS/Mol_Feturizer/New_Systems/rnas/4L81

>  <Rbt.Executable>
rbdock ($Id: //depot/dev/client3/rdock/2013.1/src/exe/rbdock.cxx#4 $)

>  <Rbt.Library>
libRbt.so (2013.1, Build901 2013/11/27)

>  <Rbt.Parameter_File>
/export/apps/rDock/src/rDock_2013.1_src/data/scripts/dock_solv.prm

>  <Rbt.Receptor>
prm/pocket_docking_8.prm

>  <SCORE>
-10.9087

>  <SCORE.INTER>
-9.6977

>  <SCORE.INTER.CONST>
1

>  <SCORE.INTER.POLAR>
0

>  <SCORE.INTER.ROT>
7

>  <SCORE.INTER.SOLV>
12.226

>  <SCORE.INTER.VDW>
-18.8071

>  <SCORE.INTER.norm>
-0.359174

>  <SCORE.INTRA>
-1.22022

>  <SCORE.INTRA.DIHEDRAL>
2.25446

>  <SCORE.INTRA.DIHEDRAL.0>
8.34559

>  <SCORE.INTRA.POLAR>
0

>  <SCORE.INTRA.POLAR.0>
0

>  <SCORE.INTRA.REPUL>
0

>  <SCORE.INTRA.REPUL.0>
0

>  <SCORE.INTRA.SOLV>
-0.938789

>  <SCORE.INTRA.SOLV.lig_0>
-48.829

>  <SCORE.INTRA.VDW>
-1.87806

>  <SCORE.INTRA.VDW.0>
-1.77092

>  <SCORE.INTRA.norm>
-0.0451934

>  <SCORE.RESTR>
0.00918246

>  <SCORE.RESTR.CAVITY>
0.00918246

>  <SCORE.RESTR.norm>
0.000340091

>  <SCORE.SYSTEM>
0

>  <SCORE.SYSTEM.CONST>
0

>  <SCORE.SYSTEM.DIHEDRAL>
0

>  <SCORE.SYSTEM.SOLV>
0

>  <SCORE.SYSTEM.norm>
0

>  <SCORE.heavy>
27

>  <SCORE.norm>
-0.404027

>  <RMSD>
8.518

$$$$
ligand
 OpenBabel11021811503D
libRbt.so/2013.1/901 2013/11/27
 27 29  0  0  0  0  0  0  0  0999 V2000
   47.0189  -29.8561 -101.9884 N   0  0  0  0  0  0  0  0  0  0  0  0
   46.3731  -28.6621 -101.4315 C   0  0  2  0  0  0  0  0  0  0  0  0
   45.3562  -29.0774 -100.3893 C   0  0  0  0  0  0  0  0  0  0  0  0
   45.5887  -28.9072  -99.2020 O   0  0  0  0  0  0  0  0  0  0  0  0
   45.6617  -27.8510 -102.5230 C   0  0  0  0  0  0  0  0  0  0  0  0
   46.6578  -27.3424 -103.5555 C   0  0  0  0  0  0  0  0  0  0  0  0
   45.8607  -26.6885 -105.0722 S   0  0  2  0  0  0  0  0  0  0  0  0
   45.0601  -28.1485 -105.8118 C   0  0  0  0  0  0  0  0  0  0  0  0
   47.3556  -26.6566 -106.0586 C   0  0  0  0  0  0  0  0  0  0  0  0
   47.1042  -26.4983 -107.5346 C   0  0  1  0  0  0  0  0  0  0  0  0
   46.4839  -25.2179 -107.7417 O   0  0  0  0  0  0  0  0  0  0  0  0
   48.4688  -26.3975 -108.0873 C   0  0  1  0  0  0  0  0  0  0  0  0
   48.8812  -27.6711 -108.5806 O   0  0  0  0  0  0  0  0  0  0  0  0
   48.2862  -25.4428 -109.2262 C   0  0  1  0  0  0  0  0  0  0  0  0
   47.9020  -26.1544 -110.4209 O   0  0  0  0  0  0  0  0  0  0  0  0
   47.1434  -24.4743 -108.7972 C   0  0  2  0  0  0  0  0  0  0  0  0
   44.2863  -29.5530 -100.7267 O   0  0  0  0  0  0  0  0  0  0  0  0
   45.9032  -19.5397 -107.2771 N   0  0  0  0  0  0  0  0  0  0  0  0
   45.1022  -20.4406 -107.8973 C   0  0  0  0  0  0  0  0  0  0  0  0
   45.5305  -21.6854 -108.1940 N   0  0  0  0  0  0  0  0  0  0  0  0
   46.8033  -22.0452 -107.9617 C   0  0  0  0  0  0  0  0  0  0  0  0
   47.7029  -21.1034 -107.3402 C   0  0  0  0  0  0  0  0  0  0  0  0
   47.1933  -19.8170 -106.9926 C   0  0  0  0  0  0  0  0  0  0  0  0
   47.9961  -18.8718 -106.3870 N   0  0  0  0  0  0  0  0  0  0  0  0
   48.8937  -21.7036 -107.2289 N   0  0  0  0  0  0  0  0  0  0  0  0
   48.8102  -22.9023 -107.7245 C   0  0  0  0  0  0  0  0  0  0  0  0
   47.5430  -23.1734 -108.1854 N   0  0  0  0  0  0  0  0  0  0  0  0
  2  1  1  6  0  0  0
  2  3  1  0  0  0  0
  2  5  1  0  0  0  0
  3  4  1  0  0  0  0
  3 17  1  0  0  0  0
  5  6  1  0  0  0  0
  7  6  1  1  0  0  0
  7  8  1  0  0  0  0
  7  9  1  0  0  0  0
 10  9  1  1  0  0  0
 10 11  1  0  0  0  0
 10 12  1  0  0  0  0
 11 16  1  0  0  0  0
 12 13  1  6  0  0  0
 12 14  1  0  0  0  0
 14 15  1  6  0  0  0
 14 16  1  0  0  0  0
 16 27  1  1  0  0  0
 18 19  2  0  0  0  0
 18 23  1  0  0  0  0
 19 20  1  0  0  0  0
 20 21  2  0  0  0  0
 21 22  1  0  0  0  0
 21 27  1  0  0  0  0
 22 23  2  0  0  0  0
 22 25  1  0  0  0  0
 23 24  1  0  0  0  0
 25 26  2  0  0  0  0
 26 27  1  0  0  0  0
M  END
>  <CHROM.1>
106.43872734,-62.41429378,167.30753193,-65.09856556,165.25258766,63.52982031
-80.99877533,46.78721615,-25.24052667,-105.92672931,-2.09354920,1.24039813
-0.22568865

>  <Name>
ligand

>  <RI>
0

>  <Rbt.Current_Directory>
/home/itssahil/PROJECTS/Mol_Feturizer/New_Systems/rnas/4L81

>  <Rbt.Executable>
rbdock ($Id: //depot/dev/client3/rdock/2013.1/src/exe/rbdock.cxx#4 $)

>  <Rbt.Library>
libRbt.so (2013.1, Build901 2013/11/27)

>  <Rbt.Parameter_File>
/export/apps/rDock/src/rDock_2013.1_src/data/scripts/dock_solv.prm

>  <Rbt.Receptor>
prm/pocket_docking_8.prm

>  <SCORE>
-13.8828

>  <SCORE.INTER>
-11.7175

>  <SCORE.INTER.CONST>
1

>  <SCORE.INTER.POLAR>
0

>  <SCORE.INTER.ROT>
7

>  <SCORE.INTER.SOLV>
6.84428

>  <SCORE.INTER.VDW>
-18.3597

>  <SCORE.INTER.norm>
-0.43398

>  <SCORE.INTRA>
-2.16536

>  <SCORE.INTRA.DIHEDRAL>
-4.15123

>  <SCORE.INTRA.DIHEDRAL.0>
8.34559

>  <SCORE.INTRA.POLAR>
0

>  <SCORE.INTRA.POLAR.0>
0

>  <SCORE.INTRA.REPUL>
0

>  <SCORE.INTRA.REPUL.0>
0

>  <SCORE.INTRA.SOLV>
-0.522343

>  <SCORE.INTRA.SOLV.lig_0>
-48.829

>  <SCORE.INTRA.VDW>
0.171426

>  <SCORE.INTRA.VDW.0>
-1.77092

>  <SCORE.INTRA.norm>
-0.0801985

>  <SCORE.RESTR>
0

>  <SCORE.RESTR.CAVITY>
0

>  <SCORE.RESTR.norm>
0

>  <SCORE.SYSTEM>
0

>  <SCORE.SYSTEM.CONST>
0

>  <SCORE.SYSTEM.DIHEDRAL>
0

>  <SCORE.SYSTEM.SOLV>
0

>  <SCORE.SYSTEM.norm>
0

>  <SCORE.heavy>
27

>  <SCORE.norm>
-0.514178

>  <RMSD>
8.686

$$$$
ligand
 OpenBabel11021811503D
libRbt.so/2013.1/901 2013/11/27
 27 29  0  0  0  0  0  0  0  0999 V2000
   46.9285  -29.4758 -101.6380 N   0  0  0  0  0  0  0  0  0  0  0  0
   45.6519  -28.8269 -101.3186 C   0  0  2  0  0  0  0  0  0  0  0  0
   44.7327  -29.8242 -100.6454 C   0  0  0  0  0  0  0  0  0  0  0  0
   45.1551  -30.5444  -99.7534 O   0  0  0  0  0  0  0  0  0  0  0  0
   44.9643  -28.2935 -102.5828 C   0  0  0  0  0  0  0  0  0  0  0  0
   45.8995  -27.3809 -103.3635 C   0  0  0  0  0  0  0  0  0  0  0  0
   45.2009  -26.8254 -104.9656 S   0  0  2  0  0  0  0  0  0  0  0  0
   44.7346  -28.3753 -105.8023 C   0  0  0  0  0  0  0  0  0  0  0  0
   46.7814  -26.5409 -105.7592 C   0  0  0  0  0  0  0  0  0  0  0  0
   46.6734  -26.2165 -107.2255 C   0  0  1  0  0  0  0  0  0  0  0  0
   46.0744  -24.9152 -107.3466 O   0  0  0  0  0  0  0  0  0  0  0  0
   48.0848  -26.0678 -107.6298 C   0  0  1  0  0  0  0  0  0  0  0  0
   48.5445  -27.2823 -108.2207 O   0  0  0  0  0  0  0  0  0  0  0  0
   48.0118  -24.9903 -108.6670 C   0  0  1  0  0  0  0  0  0  0  0  0
   47.7455  -25.5605 -109.9652 O   0  0  0  0  0  0  0  0  0  0  0  0
   46.8317  -24.0648 -108.2439 C   0  0  2  0  0  0  0  0  0  0  0  0
   43.5586  -29.8935 -100.9641 O   0  0  0  0  0  0  0  0  0  0  0  0
   49.9925  -19.8884 -107.3689 N   0  0  0  0  0  0  0  0  0  0  0  0
   50.1402  -20.8560 -108.3069 C   0  0  0  0  0  0  0  0  0  0  0  0
   49.2363  -21.8473 -108.4528 N   0  0  0  0  0  0  0  0  0  0  0  0
   48.1985  -21.9573 -107.6077 C   0  0  0  0  0  0  0  0  0  0  0  0
   48.0250  -20.9721 -106.5676 C   0  0  0  0  0  0  0  0  0  0  0  0
   48.9734  -19.9096 -106.4840 C   0  0  0  0  0  0  0  0  0  0  0  0
   48.8619  -18.9284 -105.5200 N   0  0  0  0  0  0  0  0  0  0  0  0
   46.9333  -21.3137 -105.8731 N   0  0  0  0  0  0  0  0  0  0  0  0
   46.4359  -22.4035 -106.3776 C   0  0  0  0  0  0  0  0  0  0  0  0
   47.1688  -22.8441 -107.4548 N   0  0  0  0  0  0  0  0  0  0  0  0
  2  1  1  6  0  0  0
  2  3  1  0  0  0  0
  2  5  1  0  0  0  0
  3  4  1  0  0  0  0
  3 17  1  0  0  0  0
  5  6  1  0  0  0  0
  7  6  1  1  0  0  0
  7  8  1  0  0  0  0
  7  9  1  0  0  0  0
 10  9  1  1  0  0  0
 10 11  1  0  0  0  0
 10 12  1  0  0  0  0
 11 16  1  0  0  0  0
 12 13  1  6  0  0  0
 12 14  1  0  0  0  0
 14 15  1  6  0  0  0
 14 16  1  0  0  0  0
 16 27  1  1  0  0  0
 18 19  2  0  0  0  0
 18 23  1  0  0  0  0
 19 20  1  0  0  0  0
 20 21  2  0  0  0  0
 21 22  1  0  0  0  0
 21 27  1  0  0  0  0
 22 23  2  0  0  0  0
 22 25  1  0  0  0  0
 23 24  1  0  0  0  0
 25 26  2  0  0  0  0
 26 27  1  0  0  0  0
M  END
>  <CHROM.1>
45.57159067,-54.08613105,174.78036129,-53.75269109,172.65526509,69.15196718
155.00308627,46.88630876,-25.25577776,-105.64114857,-3.11916709,-1.22063991
-2.18156229

>  <Name>
ligand

>  <RI>
0

>  <Rbt.Current_Directory>
/home/itssahil/PROJECTS/Mol_Feturizer/New_Systems/rnas/4L81

>  <Rbt.Executable>
rbdock ($Id: //depot/dev/client3/rdock/2013.1/src/exe/rbdock.cxx#4 $)

>  <Rbt.Library>
libRbt.so (2013.1, Build901 2013/11/27)

>  <Rbt.Parameter_File>
/export/apps/rDock/src/rDock_2013.1_src/data/scripts/dock_solv.prm

>  <Rbt.Receptor>
prm/pocket_docking_8.prm

>  <SCORE>
-13.2457

>  <SCORE.INTER>
-12.1863

>  <SCORE.INTER.CONST>
1

>  <SCORE.INTER.POLAR>
0

>  <SCORE.INTER.ROT>
7

>  <SCORE.INTER.SOLV>
7.01513

>  <SCORE.INTER.VDW>
-18.7293

>  <SCORE.INTER.norm>
-0.451345

>  <SCORE.INTRA>
-1.05934

>  <SCORE.INTRA.DIHEDRAL>
-3.90562

>  <SCORE.INTRA.DIHEDRAL.0>
8.34559

>  <SCORE.INTRA.POLAR>
0

>  <SCORE.INTRA.POLAR.0>
0

>  <SCORE.INTRA.REPUL>
0

>  <SCORE.INTRA.REPUL.0>
0

>  <SCORE.INTRA.SOLV>
-0.602352

>  <SCORE.INTRA.SOLV.lig_0>
-48.829

>  <SCORE.INTRA.VDW>
1.19464

>  <SCORE.INTRA.VDW.0>
-1.77092

>  <SCORE.INTRA.norm>
-0.0392349

>  <SCORE.RESTR>
0

>  <SCORE.RESTR.CAVITY>
0

>  <SCORE.RESTR.norm>
0

>  <SCORE.SYSTEM>
0

>  <SCORE.SYSTEM.CONST>
0

>  <SCORE.SYSTEM.DIHEDRAL>
0

>  <SCORE.SYSTEM.SOLV>
0

>  <SCORE.SYSTEM.norm>
0

>  <SCORE.heavy>
27

>  <SCORE.norm>
-0.49058

>  <RMSD>
8.707

$$$$
ligand
 OpenBabel11021811503D
libRbt.so/2013.1/901 2013/11/27
 27 29  0  0  0  0  0  0  0  0999 V2000
   49.1548  -29.1899 -103.9137 N   0  0  0  0  0  0  0  0  0  0  0  0
   50.0934  -28.7930 -102.8582 C   0  0  2  0  0  0  0  0  0  0  0  0
   49.9380  -29.7183 -101.6698 C   0  0  0  0  0  0  0  0  0  0  0  0
   48.8319  -30.1263 -101.3492 O   0  0  0  0  0  0  0  0  0  0  0  0
   49.8414  -27.3502 -102.3997 C   0  0  0  0  0  0  0  0  0  0  0  0
   50.1885  -26.3626 -103.5047 C   0  0  0  0  0  0  0  0  0  0  0  0
   49.9559  -24.6114 -103.0122 S   0  0  2  0  0  0  0  0  0  0  0  0
   48.1846  -24.5029 -102.5995 C   0  0  0  0  0  0  0  0  0  0  0  0
   49.8967  -23.9640 -104.6814 C   0  0  0  0  0  0  0  0  0  0  0  0
   50.0700  -22.4704 -104.7584 C   0  0  1  0  0  0  0  0  0  0  0  0
   50.1957  -22.1117 -106.1450 O   0  0  0  0  0  0  0  0  0  0  0  0
   48.7561  -21.9678 -104.3126 C   0  0  1  0  0  0  0  0  0  0  0  0
   48.8198  -21.6207 -102.9302 O   0  0  0  0  0  0  0  0  0  0  0  0
   48.5842  -20.7331 -105.1422 C   0  0  1  0  0  0  0  0  0  0  0  0
   49.1911  -19.5999 -104.4873 O   0  0  0  0  0  0  0  0  0  0  0  0
   49.3114  -21.0161 -106.4910 C   0  0  2  0  0  0  0  0  0  0  0  0
   50.9162  -30.0892 -101.0449 O   0  0  0  0  0  0  0  0  0  0  0  0
   44.5421  -21.7999 -108.6904 N   0  0  0  0  0  0  0  0  0  0  0  0
   44.8147  -21.2759 -107.4702 C   0  0  0  0  0  0  0  0  0  0  0  0
   46.0816  -21.0901 -107.0443 N   0  0  0  0  0  0  0  0  0  0  0  0
   47.1212  -21.5040 -107.7869 C   0  0  0  0  0  0  0  0  0  0  0  0
   46.8758  -22.1053 -109.0756 C   0  0  0  0  0  0  0  0  0  0  0  0
   45.5230  -22.2320 -109.5108 C   0  0  0  0  0  0  0  0  0  0  0  0
   45.2173  -22.7886 -110.7361 N   0  0  0  0  0  0  0  0  0  0  0  0
   48.0648  -22.4279 -109.5979 N   0  0  0  0  0  0  0  0  0  0  0  0
   48.9992  -22.0936 -108.7585 C   0  0  0  0  0  0  0  0  0  0  0  0
   48.4792  -21.5121 -107.6258 N   0  0  0  0  0  0  0  0  0  0  0  0
  2  1  1  6  0  0  0
  2  3  1  0  0  0  0
  2  5  1  0  0  0  0
  3  4  1  0  0  0  0
  3 17  1  0  0  0  0
  5  6  1  0  0  0  0
  7  6  1  6  0  0  0
  7  8  1  0  0  0  0
  7  9  1  0  0  0  0
 10  9  1  6  0  0  0
 10 11  1  0  0  0  0
 10 12  1  0  0  0  0
 11 16  1  0  0  0  0
 12 13  1  1  0  0  0
 12 14  1  0  0  0  0
 14 15  1  1  0  0  0
 14 16  1  0  0  0  0
 16 27  1  6  0  0  0
 18 19  2  0  0  0  0
 18 23  1  0  0  0  0
 19 20  1  0  0  0  0
 20 21  2  0  0  0  0
 21 22  1  0  0  0  0
 21 27  1  0  0  0  0
 22 23  2  0  0  0  0
 22 25  1  0  0  0  0
 23 24  1  0  0  0  0
 25 26  2  0  0  0  0
 26 27  1  0  0  0  0
M  END
>  <CHROM.1>
-37.24567574,-67.69595763,-178.41055315,-60.20829988,-164.79675857,171.83784647
128.98886558,48.55673130,-23.90927912,-105.23800515,0.99160700,0.97205908
2.92409985

>  <Name>
ligand

>  <RI>
0

>  <Rbt.Current_Directory>
/home/itssahil/PROJECTS/Mol_Feturizer/New_Systems/rnas/4L81

>  <Rbt.Executable>
rbdock ($Id: //depot/dev/client3/rdock/2013.1/src/exe/rbdock.cxx#4 $)

>  <Rbt.Library>
libRbt.so (2013.1, Build901 2013/11/27)

>  <Rbt.Parameter_File>
/export/apps/rDock/src/rDock_2013.1_src/data/scripts/dock_solv.prm

>  <Rbt.Receptor>
prm/pocket_docking_8.prm

>  <SCORE>
-12.1897

>  <SCORE.INTER>
-10.7833

>  <SCORE.INTER.CONST>
1

>  <SCORE.INTER.POLAR>
0

>  <SCORE.INTER.ROT>
7

>  <SCORE.INTER.SOLV>
9.80801

>  <SCORE.INTER.VDW>
-18.7249

>  <SCORE.INTER.norm>
-0.39938

>  <SCORE.INTRA>
-1.40645

>  <SCORE.INTRA.DIHEDRAL>
-2.9331

>  <SCORE.INTRA.DIHEDRAL.0>
8.34559

>  <SCORE.INTRA.POLAR>
0

>  <SCORE.INTRA.POLAR.0>
0

>  <SCORE.INTRA.REPUL>
0

>  <SCORE.INTRA.REPUL.0>
0

>  <SCORE.INTRA.SOLV>
-0.344317

>  <SCORE.INTRA.SOLV.lig_0>
-48.829

>  <SCORE.INTRA.VDW>
0.232255

>  <SCORE.INTRA.VDW.0>
-1.77092

>  <SCORE.INTRA.norm>
-0.0520909

>  <SCORE.RESTR>
0

>  <SCORE.RESTR.CAVITY>
0

>  <SCORE.RESTR.norm>
0

>  <SCORE.SYSTEM>
0

>  <SCORE.SYSTEM.CONST>
0

>  <SCORE.SYSTEM.DIHEDRAL>
0

>  <SCORE.SYSTEM.SOLV>
0

>  <SCORE.SYSTEM.norm>
0

>  <SCORE.heavy>
27

>  <SCORE.norm>
-0.451471

>  <RMSD>
9.123

$$$$
ligand
 OpenBabel11021811503D
libRbt.so/2013.1/901 2013/11/27
 27 29  0  0  0  0  0  0  0  0999 V2000
   48.4683  -24.6359 -103.9239 N   0  0  0  0  0  0  0  0  0  0  0  0
   49.5641  -23.7649 -104.3633 C   0  0  2  0  0  0  0  0  0  0  0  0
   49.8105  -22.6968 -103.3187 C   0  0  0  0  0  0  0  0  0  0  0  0
   50.6199  -21.8062 -103.5294 O   0  0  0  0  0  0  0  0  0  0  0  0
   49.2364  -23.0852 -105.6997 C   0  0  0  0  0  0  0  0  0  0  0  0
   47.9342  -22.3029 -105.6042 C   0  0  0  0  0  0  0  0  0  0  0  0
   47.6883  -21.1308 -106.9931 S   0  0  2  0  0  0  0  0  0  0  0  0
   46.4684  -19.9393 -106.3514 C   0  0  0  0  0  0  0  0  0  0  0  0
   46.5848  -22.1897 -107.9256 C   0  0  0  0  0  0  0  0  0  0  0  0
   46.7188  -22.0402 -109.4177 C   0  0  1  0  0  0  0  0  0  0  0  0
   47.8447  -22.8277 -109.8408 O   0  0  0  0  0  0  0  0  0  0  0  0
   45.5137  -22.7264 -109.9223 C   0  0  1  0  0  0  0  0  0  0  0  0
   44.4964  -21.7656 -110.2007 O   0  0  0  0  0  0  0  0  0  0  0  0
   46.0014  -23.3390 -111.1986 C   0  0  1  0  0  0  0  0  0  0  0  0
   45.8702  -22.4017 -112.2874 O   0  0  0  0  0  0  0  0  0  0  0  0
   47.5056  -23.6743 -110.9680 C   0  0  2  0  0  0  0  0  0  0  0  0
   49.1809  -22.6976 -102.2753 O   0  0  0  0  0  0  0  0  0  0  0  0
   48.8198  -27.1191 -107.1464 N   0  0  0  0  0  0  0  0  0  0  0  0
   48.6335  -25.7816 -107.0267 C   0  0  0  0  0  0  0  0  0  0  0  0
   48.2575  -25.0205 -108.0757 N   0  0  0  0  0  0  0  0  0  0  0  0
   48.1407  -25.5547 -109.3023 C   0  0  0  0  0  0  0  0  0  0  0  0
   48.3701  -26.9679 -109.4836 C   0  0  0  0  0  0  0  0  0  0  0  0
   48.7118  -27.7453 -108.3373 C   0  0  0  0  0  0  0  0  0  0  0  0
   48.9350  -29.1036 -108.4375 N   0  0  0  0  0  0  0  0  0  0  0  0
   48.1963  -27.2363 -110.7831 N   0  0  0  0  0  0  0  0  0  0  0  0
   47.8956  -26.1353 -111.4050 C   0  0  0  0  0  0  0  0  0  0  0  0
   47.8390  -25.0651 -110.5429 N   0  0  0  0  0  0  0  0  0  0  0  0
  2  1  1  1  0  0  0
  2  3  1  0  0  0  0
  2  5  1  0  0  0  0
  3  4  1  0  0  0  0
  3 17  1  0  0  0  0
  5  6  1  0  0  0  0
  7  6  1  1  0  0  0
  7  8  1  0  0  0  0
  7  9  1  0  0  0  0
 10  9  1  1  0  0  0
 10 11  1  0  0  0  0
 10 12  1  0  0  0  0
 11 16  1  0  0  0  0
 12 13  1  6  0  0  0
 12 14  1  0  0  0  0
 14 15  1  6  0  0  0
 14 16  1  0  0  0  0
 16 27  1  1  0  0  0
 18 19  2  0  0  0  0
 18 23  1  0  0  0  0
 19 20  1  0  0  0  0
 20 21  2  0  0  0  0
 21 22  1  0  0  0  0
 21 27  1  0  0  0  0
 22 23  2  0  0  0  0
 22 25  1  0  0  0  0
 23 24  1  0  0  0  0
 25 26  2  0  0  0  0
 26 27  1  0  0  0  0
M  END
>  <CHROM.1>
-174.78922092,56.36315009,165.34350646,-159.64723532,-146.80041820,81.48957144
12.34793833,47.86838843,-23.79567562,-107.86116989,-0.96449326,1.05250291
-2.43067633

>  <Name>
ligand

>  <RI>
0

>  <Rbt.Current_Directory>
/home/itssahil/PROJECTS/Mol_Feturizer/New_Systems/rnas/4L81

>  <Rbt.Executable>
rbdock ($Id: //depot/dev/client3/rdock/2013.1/src/exe/rbdock.cxx#4 $)

>  <Rbt.Library>
libRbt.so (2013.1, Build901 2013/11/27)

>  <Rbt.Parameter_File>
/export/apps/rDock/src/rDock_2013.1_src/data/scripts/dock_solv.prm

>  <Rbt.Receptor>
prm/pocket_docking_8.prm

>  <SCORE>
-8.11136

>  <SCORE.INTER>
-8.07457

>  <SCORE.INTER.CONST>
1

>  <SCORE.INTER.POLAR>
0

>  <SCORE.INTER.ROT>
7

>  <SCORE.INTER.SOLV>
13.6018

>  <SCORE.INTER.VDW>
-18.1837

>  <SCORE.INTER.norm>
-0.299058

>  <SCORE.INTRA>
-0.0587395

>  <SCORE.INTRA.DIHEDRAL>
2.71402

>  <SCORE.INTRA.DIHEDRAL.0>
8.34559

>  <SCORE.INTRA.POLAR>
0

>  <SCORE.INTRA.POLAR.0>
0

>  <SCORE.INTRA.REPUL>
0

>  <SCORE.INTRA.REPUL.0>
0

>  <SCORE.INTRA.SOLV>
-0.189799

>  <SCORE.INTRA.SOLV.lig_0>
-48.829

>  <SCORE.INTRA.VDW>
-1.32085

>  <SCORE.INTRA.VDW.0>
-1.77092

>  <SCORE.INTRA.norm>
-0.00217554

>  <SCORE.RESTR>
0.0219522

>  <SCORE.RESTR.CAVITY>
0.0219522

>  <SCORE.RESTR.norm>
0.000813046

>  <SCORE.SYSTEM>
0

>  <SCORE.SYSTEM.CONST>
0

>  <SCORE.SYSTEM.DIHEDRAL>
0

>  <SCORE.SYSTEM.SOLV>
0

>  <SCORE.SYSTEM.norm>
0

>  <SCORE.heavy>
27

>  <SCORE.norm>
-0.300421

>  <RMSD>
9.411

$$$$
ligand
 OpenBabel11021811503D
libRbt.so/2013.1/901 2013/11/27
 27 29  0  0  0  0  0  0  0  0999 V2000
   46.6230  -25.2593 -104.4113 N   0  0  0  0  0  0  0  0  0  0  0  0
   45.5227  -25.7659 -105.2392 C   0  0  2  0  0  0  0  0  0  0  0  0
   44.5245  -26.4931 -104.3631 C   0  0  0  0  0  0  0  0  0  0  0  0
   44.7680  -26.6825 -103.1810 O   0  0  0  0  0  0  0  0  0  0  0  0
   46.0331  -26.7322 -106.3168 C   0  0  0  0  0  0  0  0  0  0  0  0
   46.8758  -25.9960 -107.3487 C   0  0  0  0  0  0  0  0  0  0  0  0
   47.5007  -27.0849 -108.6856 S   0  0  2  0  0  0  0  0  0  0  0  0
   48.9045  -27.9585 -107.9202 C   0  0  0  0  0  0  0  0  0  0  0  0
   48.4042  -25.8029 -109.5508 C   0  0  0  0  0  0  0  0  0  0  0  0
   47.5217  -24.8383 -110.2975 C   0  0  1  0  0  0  0  0  0  0  0  0
   46.7880  -24.0706 -109.3284 O   0  0  0  0  0  0  0  0  0  0  0  0
   48.4959  -23.9162 -110.9126 C   0  0  1  0  0  0  0  0  0  0  0  0
   48.7360  -24.3046 -112.2642 O   0  0  0  0  0  0  0  0  0  0  0  0
   47.7686  -22.6079 -110.8781 C   0  0  1  0  0  0  0  0  0  0  0  0
   46.9491  -22.4580 -112.0560 O   0  0  0  0  0  0  0  0  0  0  0  0
   46.8664  -22.6502 -109.6083 C   0  0  2  0  0  0  0  0  0  0  0  0
   43.4582  -26.8652 -104.8209 O   0  0  0  0  0  0  0  0  0  0  0  0
   50.8343  -20.2497 -107.0215 N   0  0  0  0  0  0  0  0  0  0  0  0
   50.8408  -20.7219 -108.2922 C   0  0  0  0  0  0  0  0  0  0  0  0
   49.7443  -21.2778 -108.8487 N   0  0  0  0  0  0  0  0  0  0  0  0
   48.6281  -21.4624 -108.1252 C   0  0  0  0  0  0  0  0  0  0  0  0
   48.5902  -21.0119 -106.7547 C   0  0  0  0  0  0  0  0  0  0  0  0
   49.7534  -20.3795 -106.2233 C   0  0  0  0  0  0  0  0  0  0  0  0
   49.7824  -19.9162 -104.9236 N   0  0  0  0  0  0  0  0  0  0  0  0
   47.3818  -21.3177 -106.2679 N   0  0  0  0  0  0  0  0  0  0  0  0
   46.6912  -21.9117 -107.1950 C   0  0  0  0  0  0  0  0  0  0  0  0
   47.4042  -22.0230 -108.3659 N   0  0  0  0  0  0  0  0  0  0  0  0
  2  1  1  1  0  0  0
  2  3  1  0  0  0  0
  2  5  1  0  0  0  0
  3  4  1  0  0  0  0
  3 17  1  0  0  0  0
  5  6  1  0  0  0  0
  7  6  1  1  0  0  0
  7  8  1  0  0  0  0
  7  9  1  0  0  0  0
 10  9  1  1  0  0  0
 10 11  1  0  0  0  0
 10 12  1  0  0  0  0
 11 16  1  0  0  0  0
 12 13  1  6  0  0  0
 12 14  1  0  0  0  0
 14 15  1  6  0  0  0
 14 16  1  0  0  0  0
 16 27  1  1  0  0  0
 18 19  2  0  0  0  0
 18 23  1  0  0  0  0
 19 20  1  0  0  0  0
 20 21  2  0  0  0  0
 21 22  1  0  0  0  0
 21 27  1  0  0  0  0
 22 23  2  0  0  0  0
 22 25  1  0  0  0  0
 23 24  1  0  0  0  0
 25 26  2  0  0  0  0
 26 27  1  0  0  0  0
M  END
>  <CHROM.1>
-6.37887242,-67.78036930,-179.11469754,-77.99420651,-73.52025042,68.14402442
109.17431502,47.55544200,-23.94207836,-107.81439846,-3.06797904,-1.05178360
-2.06834207

>  <Name>
ligand

>  <RI>
0

>  <Rbt.Current_Directory>
/home/itssahil/PROJECTS/Mol_Feturizer/New_Systems/rnas/4L81

>  <Rbt.Executable>
rbdock ($Id: //depot/dev/client3/rdock/2013.1/src/exe/rbdock.cxx#4 $)

>  <Rbt.Library>
libRbt.so (2013.1, Build901 2013/11/27)

>  <Rbt.Parameter_File>
/export/apps/rDock/src/rDock_2013.1_src/data/scripts/dock_solv.prm

>  <Rbt.Receptor>
prm/pocket_docking_8.prm

>  <SCORE>
-17.2799

>  <SCORE.INTER>
-14.381

>  <SCORE.INTER.CONST>
1

>  <SCORE.INTER.POLAR>
0

>  <SCORE.INTER.ROT>
7

>  <SCORE.INTER.SOLV>
10.3612

>  <SCORE.INTER.VDW>
-21.3077

>  <SCORE.INTER.norm>
-0.532628

>  <SCORE.INTRA>
-2.90977

>  <SCORE.INTRA.DIHEDRAL>
-4.25482

>  <SCORE.INTRA.DIHEDRAL.0>
8.34559

>  <SCORE.INTRA.POLAR>
0

>  <SCORE.INTRA.POLAR.0>
0

>  <SCORE.INTRA.REPUL>
0

>  <SCORE.INTRA.REPUL.0>
0

>  <SCORE.INTRA.SOLV>
-0.563149

>  <SCORE.INTRA.SOLV.lig_0>
-48.829

>  <SCORE.INTRA.VDW>
-0.500783

>  <SCORE.INTRA.VDW.0>
-1.77092

>  <SCORE.INTRA.norm>
-0.107769

>  <SCORE.RESTR>
0.0108056

>  <SCORE.RESTR.CAVITY>
0.0108056

>  <SCORE.RESTR.norm>
0.000400209

>  <SCORE.SYSTEM>
0

>  <SCORE.SYSTEM.CONST>
0

>  <SCORE.SYSTEM.DIHEDRAL>
0

>  <SCORE.SYSTEM.SOLV>
0

>  <SCORE.SYSTEM.norm>
0

>  <SCORE.heavy>
27

>  <SCORE.norm>
-0.639997

>  <RMSD>
9.572

$$$$
