ligand
  PyMOL2.3          3D                             0

 46 52  0  0  0  0  0  0  0  0999 V2000
   -9.7650    4.8970   15.6170 P   0  0  0  0  0  0  0  0  0  0  0  0
   -5.1820    2.6480   18.5520 P   0  0  0  0  0  0  0  0  0  0  0  0
  -10.4970    3.6590   14.5810 O   0  5  0  0  0  0  0  0  0  0  0  0
  -10.6770    6.4280   15.5570 O   0  0  0  0  0  0  0  0  0  0  0  0
   -9.0830    5.0710   18.1720 C   0  0  0  0  0  0  0  0  0  0  0  0
   -9.7180    4.3340   17.1270 O   0  0  0  0  0  0  0  0  0  0  0  0
   -8.7690    4.1210   19.3120 C   0  0  0  0  0  0  0  0  0  0  0  0
   -9.9610    3.4180   19.6900 O   0  0  0  0  0  0  0  0  0  0  0  0
   -7.7630    3.0450   18.9370 C   0  0  0  0  0  0  0  0  0  0  0  0
   -6.4220    3.4440   19.2120 O   0  0  0  0  0  0  0  0  0  0  0  0
   -8.1900    1.8620   19.7880 C   0  0  0  0  0  0  0  0  0  0  0  0
   -7.5410    1.9140   21.0610 O   0  0  0  0  0  0  0  0  0  0  0  0
   -9.6820    2.0430   19.9970 C   0  0  0  0  0  0  0  0  0  0  0  0
   -5.9880    2.9970   13.4720 C   0  0  0  0  0  0  0  0  0  0  0  0
  -10.5740   -2.8530   18.1460 N   0  0  0  0  0  0  0  0  0  0  0  0
   -9.6780   -2.4410   19.0840 C   0  0  0  0  0  0  0  0  0  0  0  0
   -7.4050    3.3580   13.8170 C   0  0  0  0  0  0  0  0  0  0  0  0
   -8.8770   -3.3700   19.6550 N   0  0  0  0  0  0  0  0  0  0  0  0
   -7.8630    4.2310   12.7830 O   0  0  0  0  0  0  0  0  0  0  0  0
   -7.3090    4.0620   15.1560 C   0  0  0  0  0  0  0  0  0  0  0  0
   -9.5550   -1.1350   19.4660 N   0  0  0  0  0  0  0  0  0  0  0  0
   -8.2200    5.1490   15.2450 O   0  0  0  0  0  0  0  0  0  0  0  0
  -10.3360   -0.1660   18.9250 C   0  0  0  0  0  0  0  0  0  0  0  0
   -5.8830    4.5720   15.2260 C   0  0  0  0  0  0  0  0  0  0  0  0
   -5.1340    3.7670   14.3170 O   0  0  0  0  0  0  0  0  0  0  0  0
  -11.3210   -0.5580   17.9020 C   0  0  0  0  0  0  0  0  0  0  0  0
   -5.2810    4.4570   16.6220 C   0  0  0  0  0  0  0  0  0  0  0  0
   -5.2420    3.0800   17.0020 O   0  0  0  0  0  0  0  0  0  0  0  0
  -11.4070   -1.9820   17.5320 C   0  0  0  0  0  0  0  0  0  0  0  0
  -12.2950   -2.4010   16.5950 O   0  0  0  0  0  0  0  0  0  0  0  0
  -11.9540    0.5580   17.5240 N   0  0  0  0  0  0  0  0  0  0  0  0
  -11.4220    1.5900   18.2420 C   0  0  0  0  0  0  0  0  0  0  0  0
  -10.4540    1.1630   19.0800 N   0  0  0  0  0  0  0  0  0  0  0  0
   -7.3140   -1.7970   11.8510 N   0  0  0  0  0  0  0  0  0  0  0  0
   -5.3770    0.8830   18.7180 O   0  5  0  0  0  0  0  0  0  0  0  0
   -7.7550   -0.5810   11.4270 C   0  0  0  0  0  0  0  0  0  0  0  0
   -8.6760   -0.5200   10.4300 N   0  0  0  0  0  0  0  0  0  0  0  0
   -3.6060    3.1330   19.2070 O   0  0  0  0  0  0  0  0  0  0  0  0
   -7.3010    0.5810   11.9710 N   0  0  0  0  0  0  0  0  0  0  0  0
   -6.3790    0.5850   12.9620 C   0  0  0  0  0  0  0  0  0  0  0  0
   -5.8670   -0.6970   13.4640 C   0  0  0  0  0  0  0  0  0  0  0  0
   -6.4020   -1.9250   12.8380 C   0  0  0  0  0  0  0  0  0  0  0  0
   -5.9910   -3.1540   13.2370 O   0  0  0  0  0  0  0  0  0  0  0  0
   -4.9850   -0.4040   14.4400 N   0  0  0  0  0  0  0  0  0  0  0  0
   -4.9340    0.9570   14.5500 C   0  0  0  0  0  0  0  0  0  0  0  0
   -5.7720    1.5430   13.6650 N   0  0  0  0  0  0  0  0  0  0  0  0
  1  3  1  0  0  0  0
  1  4  2  0  0  0  0
  1  6  1  0  0  0  0
  1 22  1  0  0  0  0
  2 28  1  0  0  0  0
  2 35  1  0  0  0  0
  2 38  2  0  0  0  0
  5  7  1  0  0  0  0
  5  6  1  0  0  0  0
  7  8  1  0  0  0  0
  7  9  1  0  0  0  0
  8 13  1  0  0  0  0
  9 10  1  0  0  0  0
  9 11  1  0  0  0  0
  2 10  1  0  0  0  0
 11 12  1  0  0  0  0
 11 13  1  0  0  0  0
 13 33  1  0  0  0  0
 14 46  1  0  0  0  0
 15 16  4  0  0  0  0
 16 18  1  0  0  0  0
 16 21  4  0  0  0  0
 14 17  1  0  0  0  0
 17 19  1  0  0  0  0
 17 20  1  0  0  0  0
 20 22  1  0  0  0  0
 21 23  4  0  0  0  0
 20 24  1  0  0  0  0
 24 25  1  0  0  0  0
 14 25  1  0  0  0  0
 23 26  4  0  0  0  0
 26 29  4  0  0  0  0
 24 27  1  0  0  0  0
 27 28  1  0  0  0  0
 15 29  4  0  0  0  0
 29 30  2  0  0  0  0
 26 31  4  0  0  0  0
 31 32  4  0  0  0  0
 23 33  4  0  0  0  0
 32 33  4  0  0  0  0
 34 36  4  0  0  0  0
 36 37  1  0  0  0  0
 36 39  4  0  0  0  0
 39 40  4  0  0  0  0
 40 41  4  0  0  0  0
 41 42  4  0  0  0  0
 34 42  4  0  0  0  0
 42 43  2  0  0  0  0
 41 44  4  0  0  0  0
 44 45  4  0  0  0  0
 40 46  4  0  0  0  0
 45 46  4  0  0  0  0
M  END
$$$$
