ligand
 OpenBabel11021811503D
libRbt.so/2013.1/901 2013/11/27
 12 13  0  0  0  0  0  0  0  0999 V2000
    6.6697   17.5319    1.7330 C   0  0  0  0  0  0  0  0  0  0  0  0
    5.3287   16.2971    3.1862 C   0  0  0  0  0  0  0  0  0  0  0  0
    7.1579   17.7133    0.5092 N   0  0  0  0  0  0  0  0  0  0  0  0
    4.5242   15.2662    3.4676 N   0  0  0  0  0  0  0  0  0  0  0  0
    5.8511   16.4828    1.9667 N   0  0  0  0  0  0  0  0  0  0  0  0
    6.9766   18.4109    2.7127 N   0  0  0  0  0  0  0  0  0  0  0  0
    5.4422   17.8921    6.5194 N   0  0  0  0  0  0  0  0  0  0  0  0
    6.2915   18.9733    6.2379 C   0  0  0  0  0  0  0  0  0  0  0  0
    6.8192   19.1376    4.9358 N   0  0  0  0  0  0  0  0  0  0  0  0
    6.4817   18.2598    3.9665 C   0  0  0  0  0  0  0  0  0  0  0  0
    5.6275   17.1837    4.2281 C   0  0  0  0  0  0  0  0  0  0  0  0
    5.0966   16.9822    5.5008 C   0  0  0  0  0  0  0  0  0  0  0  0
  1  3  1  0  0  0  0
  1  5  1  0  0  0  0
  1  6  2  0  0  0  0
  2  5  2  0  0  0  0
  2 11  1  0  0  0  0
  2  4  1  0  0  0  0
  6 10  1  0  0  0  0
  7  8  2  0  0  0  0
  7 12  1  0  0  0  0
  8  9  1  0  0  0  0
  9 10  2  0  0  0  0
 10 11  1  0  0  0  0
 11 12  2  0  0  0  0
M  END
>  <CHROM.1>
6.03040445,17.50882924,3.71668526,-1.33740448,0.91238675,1.16040290

>  <Name>
ligand

>  <RI>
0

>  <Rbt.Current_Directory>
/home/itssahil/PROJECTS/Mol_Feturizer/New_Systems/rnas/4LX5

>  <Rbt.Executable>
rbdock ($Id: //depot/dev/client3/rdock/2013.1/src/exe/rbdock.cxx#4 $)

>  <Rbt.Library>
libRbt.so (2013.1, Build901 2013/11/27)

>  <Rbt.Parameter_File>
/export/apps/rDock/src/rDock_2013.1_src/data/scripts/dock_solv.prm

>  <Rbt.Receptor>
prm/pocket_docking_6.prm

>  <SCORE>
-14.11

>  <SCORE.INTER>
-14.11

>  <SCORE.INTER.CONST>
1

>  <SCORE.INTER.POLAR>
0

>  <SCORE.INTER.ROT>
0

>  <SCORE.INTER.SOLV>
18.8445

>  <SCORE.INTER.VDW>
-19.2882

>  <SCORE.INTER.norm>
-1.17584

>  <SCORE.INTRA>
0

>  <SCORE.INTRA.DIHEDRAL>
0

>  <SCORE.INTRA.DIHEDRAL.0>
0

>  <SCORE.INTRA.POLAR>
0

>  <SCORE.INTRA.POLAR.0>
0

>  <SCORE.INTRA.REPUL>
0

>  <SCORE.INTRA.REPUL.0>
0

>  <SCORE.INTRA.SOLV>
0

>  <SCORE.INTRA.SOLV.lig_0>
-48.1583

>  <SCORE.INTRA.VDW>
0

>  <SCORE.INTRA.VDW.0>
0

>  <SCORE.INTRA.norm>
0

>  <SCORE.RESTR>
0

>  <SCORE.RESTR.CAVITY>
0

>  <SCORE.RESTR.norm>
0

>  <SCORE.SYSTEM>
0

>  <SCORE.SYSTEM.CONST>
0

>  <SCORE.SYSTEM.DIHEDRAL>
0

>  <SCORE.SYSTEM.SOLV>
0

>  <SCORE.SYSTEM.norm>
0

>  <SCORE.heavy>
12

>  <SCORE.norm>
-1.17584

>  <RMSD>
0.418

$$$$
ligand
 OpenBabel11021811503D
libRbt.so/2013.1/901 2013/11/27
 12 13  0  0  0  0  0  0  0  0999 V2000
    6.6746   17.5466    1.7406 C   0  0  0  0  0  0  0  0  0  0  0  0
    5.3335   16.2991    3.1829 C   0  0  0  0  0  0  0  0  0  0  0  0
    7.1674   17.7352    0.5198 N   0  0  0  0  0  0  0  0  0  0  0  0
    4.5334   15.2629    3.4567 N   0  0  0  0  0  0  0  0  0  0  0  0
    5.8606   16.4923    1.9665 N   0  0  0  0  0  0  0  0  0  0  0  0
    6.9722   18.4236    2.7249 N   0  0  0  0  0  0  0  0  0  0  0  0
    5.4229   17.8823    6.5225 N   0  0  0  0  0  0  0  0  0  0  0  0
    6.2677   18.9691    6.2489 C   0  0  0  0  0  0  0  0  0  0  0  0
    6.8005   19.1411    4.9500 N   0  0  0  0  0  0  0  0  0  0  0  0
    6.4723   18.2652    3.9759 C   0  0  0  0  0  0  0  0  0  0  0  0
    5.6226   17.1835    4.2294 C   0  0  0  0  0  0  0  0  0  0  0  0
    5.0870   16.9743    5.4989 C   0  0  0  0  0  0  0  0  0  0  0  0
  1  3  1  0  0  0  0
  1  5  1  0  0  0  0
  1  6  2  0  0  0  0
  2  5  2  0  0  0  0
  2 11  1  0  0  0  0
  2  4  1  0  0  0  0
  6 10  1  0  0  0  0
  7  8  2  0  0  0  0
  7 12  1  0  0  0  0
  8  9  1  0  0  0  0
  9 10  2  0  0  0  0
 10 11  1  0  0  0  0
 11 12  2  0  0  0  0
M  END
>  <CHROM.1>
6.02618337,17.51270241,3.72114584,-1.32685970,0.91546816,1.15578525

>  <Name>
ligand

>  <RI>
0

>  <Rbt.Current_Directory>
/home/itssahil/PROJECTS/Mol_Feturizer/New_Systems/rnas/4LX5

>  <Rbt.Executable>
rbdock ($Id: //depot/dev/client3/rdock/2013.1/src/exe/rbdock.cxx#4 $)

>  <Rbt.Library>
libRbt.so (2013.1, Build901 2013/11/27)

>  <Rbt.Parameter_File>
/export/apps/rDock/src/rDock_2013.1_src/data/scripts/dock_solv.prm

>  <Rbt.Receptor>
prm/blind_docking_100.prm

>  <SCORE>
-14.1091

>  <SCORE.INTER>
-14.1091

>  <SCORE.INTER.CONST>
1

>  <SCORE.INTER.POLAR>
0

>  <SCORE.INTER.ROT>
0

>  <SCORE.INTER.SOLV>
18.9001

>  <SCORE.INTER.VDW>
-19.3061

>  <SCORE.INTER.norm>
-1.17576

>  <SCORE.INTRA>
0

>  <SCORE.INTRA.DIHEDRAL>
0

>  <SCORE.INTRA.DIHEDRAL.0>
0

>  <SCORE.INTRA.POLAR>
0

>  <SCORE.INTRA.POLAR.0>
0

>  <SCORE.INTRA.REPUL>
0

>  <SCORE.INTRA.REPUL.0>
0

>  <SCORE.INTRA.SOLV>
0

>  <SCORE.INTRA.SOLV.lig_0>
-48.1583

>  <SCORE.INTRA.VDW>
0

>  <SCORE.INTRA.VDW.0>
0

>  <SCORE.INTRA.norm>
0

>  <SCORE.RESTR>
0

>  <SCORE.RESTR.CAVITY>
0

>  <SCORE.RESTR.norm>
0

>  <SCORE.SYSTEM>
0

>  <SCORE.SYSTEM.CONST>
0

>  <SCORE.SYSTEM.DIHEDRAL>
0

>  <SCORE.SYSTEM.SOLV>
0

>  <SCORE.SYSTEM.norm>
0

>  <SCORE.heavy>
12

>  <SCORE.norm>
-1.17576

>  <RMSD>
0.419

$$$$
ligand
 OpenBabel11021811503D
libRbt.so/2013.1/901 2013/11/27
 12 13  0  0  0  0  0  0  0  0999 V2000
    6.6828   17.5577    1.7446 C   0  0  0  0  0  0  0  0  0  0  0  0
    5.3345   16.3071    3.1774 C   0  0  0  0  0  0  0  0  0  0  0  0
    7.1801   17.7502    0.5262 N   0  0  0  0  0  0  0  0  0  0  0  0
    4.5313   15.2714    3.4443 N   0  0  0  0  0  0  0  0  0  0  0  0
    5.8659   16.5041    1.9635 N   0  0  0  0  0  0  0  0  0  0  0  0
    6.9790   18.4300    2.7335 N   0  0  0  0  0  0  0  0  0  0  0  0
    5.4163   17.8763    6.5238 N   0  0  0  0  0  0  0  0  0  0  0  0
    6.2641   18.9625    6.2574 C   0  0  0  0  0  0  0  0  0  0  0  0
    6.8015   19.1387    4.9610 N   0  0  0  0  0  0  0  0  0  0  0  0
    6.4747   18.2674    3.9822 C   0  0  0  0  0  0  0  0  0  0  0  0
    5.6220   17.1865    4.2285 C   0  0  0  0  0  0  0  0  0  0  0  0
    5.0818   16.9732    5.4953 C   0  0  0  0  0  0  0  0  0  0  0  0
  1  3  1  0  0  0  0
  1  5  1  0  0  0  0
  1  6  2  0  0  0  0
  2  5  2  0  0  0  0
  2 11  1  0  0  0  0
  2  4  1  0  0  0  0
  6 10  1  0  0  0  0
  7  8  2  0  0  0  0
  7 12  1  0  0  0  0
  8  9  1  0  0  0  0
  9 10  2  0  0  0  0
 10 11  1  0  0  0  0
 11 12  2  0  0  0  0
M  END
>  <CHROM.1>
6.02790821,17.51694645,3.72287586,-1.32333565,0.91224841,1.15710718

>  <Name>
ligand

>  <RI>
0

>  <Rbt.Current_Directory>
/home/itssahil/PROJECTS/Mol_Feturizer/New_Systems/rnas/4LX5

>  <Rbt.Executable>
rbdock ($Id: //depot/dev/client3/rdock/2013.1/src/exe/rbdock.cxx#4 $)

>  <Rbt.Library>
libRbt.so (2013.1, Build901 2013/11/27)

>  <Rbt.Parameter_File>
/export/apps/rDock/src/rDock_2013.1_src/data/scripts/dock_solv.prm

>  <Rbt.Receptor>
prm/pocket_docking_5.prm

>  <SCORE>
-14.107

>  <SCORE.INTER>
-14.107

>  <SCORE.INTER.CONST>
1

>  <SCORE.INTER.POLAR>
0

>  <SCORE.INTER.ROT>
0

>  <SCORE.INTER.SOLV>
18.9015

>  <SCORE.INTER.VDW>
-19.3052

>  <SCORE.INTER.norm>
-1.17559

>  <SCORE.INTRA>
0

>  <SCORE.INTRA.DIHEDRAL>
0

>  <SCORE.INTRA.DIHEDRAL.0>
0

>  <SCORE.INTRA.POLAR>
0

>  <SCORE.INTRA.POLAR.0>
0

>  <SCORE.INTRA.REPUL>
0

>  <SCORE.INTRA.REPUL.0>
0

>  <SCORE.INTRA.SOLV>
0

>  <SCORE.INTRA.SOLV.lig_0>
-48.1583

>  <SCORE.INTRA.VDW>
0

>  <SCORE.INTRA.VDW.0>
0

>  <SCORE.INTRA.norm>
0

>  <SCORE.RESTR>
0

>  <SCORE.RESTR.CAVITY>
0

>  <SCORE.RESTR.norm>
0

>  <SCORE.SYSTEM>
0

>  <SCORE.SYSTEM.CONST>
0

>  <SCORE.SYSTEM.DIHEDRAL>
0

>  <SCORE.SYSTEM.SOLV>
0

>  <SCORE.SYSTEM.norm>
0

>  <SCORE.heavy>
12

>  <SCORE.norm>
-1.17559

>  <RMSD>
0.419

$$$$
ligand
 OpenBabel11021811503D
libRbt.so/2013.1/901 2013/11/27
 12 13  0  0  0  0  0  0  0  0999 V2000
    6.6761   17.5496    1.7399 C   0  0  0  0  0  0  0  0  0  0  0  0
    5.3297   16.3076    3.1820 C   0  0  0  0  0  0  0  0  0  0  0  0
    7.1706   17.7358    0.5194 N   0  0  0  0  0  0  0  0  0  0  0  0
    4.5257   15.2743    3.4557 N   0  0  0  0  0  0  0  0  0  0  0  0
    5.8583   16.4982    1.9659 N   0  0  0  0  0  0  0  0  0  0  0  0
    6.9759   18.4262    2.7240 N   0  0  0  0  0  0  0  0  0  0  0  0
    5.4218   17.8925    6.5207 N   0  0  0  0  0  0  0  0  0  0  0  0
    6.2705   18.9762    6.2471 C   0  0  0  0  0  0  0  0  0  0  0  0
    6.8049   19.1456    4.9485 N   0  0  0  0  0  0  0  0  0  0  0  0
    6.4745   18.2702    3.9747 C   0  0  0  0  0  0  0  0  0  0  0  0
    5.6210   17.1916    4.2282 C   0  0  0  0  0  0  0  0  0  0  0  0
    5.0836   16.9850    5.4974 C   0  0  0  0  0  0  0  0  0  0  0  0
  1  3  1  0  0  0  0
  1  5  1  0  0  0  0
  1  6  2  0  0  0  0
  2  5  2  0  0  0  0
  2 11  1  0  0  0  0
  2  4  1  0  0  0  0
  6 10  1  0  0  0  0
  7  8  2  0  0  0  0
  7 12  1  0  0  0  0
  8  9  1  0  0  0  0
  9 10  2  0  0  0  0
 10 11  1  0  0  0  0
 11 12  2  0  0  0  0
M  END
>  <CHROM.1>
6.02603514,17.51910327,3.72002786,-1.32794199,0.91200375,1.15603443

>  <Name>
ligand

>  <RI>
0

>  <Rbt.Current_Directory>
/home/itssahil/PROJECTS/Mol_Feturizer/New_Systems/rnas/4LX5

>  <Rbt.Executable>
rbdock ($Id: //depot/dev/client3/rdock/2013.1/src/exe/rbdock.cxx#4 $)

>  <Rbt.Library>
libRbt.so (2013.1, Build901 2013/11/27)

>  <Rbt.Parameter_File>
/export/apps/rDock/src/rDock_2013.1_src/data/scripts/dock_solv.prm

>  <Rbt.Receptor>
prm/blind_docking_100.prm

>  <SCORE>
-14.1461

>  <SCORE.INTER>
-14.1461

>  <SCORE.INTER.CONST>
1

>  <SCORE.INTER.POLAR>
0

>  <SCORE.INTER.ROT>
0

>  <SCORE.INTER.SOLV>
18.8639

>  <SCORE.INTER.VDW>
-19.3187

>  <SCORE.INTER.norm>
-1.17884

>  <SCORE.INTRA>
0

>  <SCORE.INTRA.DIHEDRAL>
0

>  <SCORE.INTRA.DIHEDRAL.0>
0

>  <SCORE.INTRA.POLAR>
0

>  <SCORE.INTRA.POLAR.0>
0

>  <SCORE.INTRA.REPUL>
0

>  <SCORE.INTRA.REPUL.0>
0

>  <SCORE.INTRA.SOLV>
0

>  <SCORE.INTRA.SOLV.lig_0>
-48.1583

>  <SCORE.INTRA.VDW>
0

>  <SCORE.INTRA.VDW.0>
0

>  <SCORE.INTRA.norm>
0

>  <SCORE.RESTR>
0

>  <SCORE.RESTR.CAVITY>
0

>  <SCORE.RESTR.norm>
0

>  <SCORE.SYSTEM>
0

>  <SCORE.SYSTEM.CONST>
0

>  <SCORE.SYSTEM.DIHEDRAL>
0

>  <SCORE.SYSTEM.SOLV>
0

>  <SCORE.SYSTEM.norm>
0

>  <SCORE.heavy>
12

>  <SCORE.norm>
-1.17884

>  <RMSD>
0.420

$$$$
ligand
 OpenBabel11021811503D
libRbt.so/2013.1/901 2013/11/27
 12 13  0  0  0  0  0  0  0  0999 V2000
    6.6891   17.5717    1.7558 C   0  0  0  0  0  0  0  0  0  0  0  0
    5.3359   16.3067    3.1712 C   0  0  0  0  0  0  0  0  0  0  0  0
    7.1916   17.7758    0.5415 N   0  0  0  0  0  0  0  0  0  0  0  0
    4.5329   15.2676    3.4252 N   0  0  0  0  0  0  0  0  0  0  0  0
    5.8726   16.5152    1.9616 N   0  0  0  0  0  0  0  0  0  0  0  0
    6.9796   18.4356    2.7538 N   0  0  0  0  0  0  0  0  0  0  0  0
    5.4002   17.8462    6.5318 N   0  0  0  0  0  0  0  0  0  0  0  0
    6.2478   18.9358    6.2790 C   0  0  0  0  0  0  0  0  0  0  0  0
    6.7909   19.1242    4.9866 N   0  0  0  0  0  0  0  0  0  0  0  0
    6.4698   18.2613    3.9986 C   0  0  0  0  0  0  0  0  0  0  0  0
    5.6174   17.1771    4.2314 C   0  0  0  0  0  0  0  0  0  0  0  0
    5.0717   16.9518    5.4938 C   0  0  0  0  0  0  0  0  0  0  0  0
  1  3  1  0  0  0  0
  1  5  1  0  0  0  0
  1  6  2  0  0  0  0
  2  5  2  0  0  0  0
  2 11  1  0  0  0  0
  2  4  1  0  0  0  0
  6 10  1  0  0  0  0
  7  8  2  0  0  0  0
  7 12  1  0  0  0  0
  8  9  1  0  0  0  0
  9 10  2  0  0  0  0
 10 11  1  0  0  0  0
 11 12  2  0  0  0  0
M  END
>  <CHROM.1>
6.02517656,17.51256088,3.73063579,-1.31559056,0.91164953,1.15987860

>  <Name>
ligand

>  <RI>
0

>  <Rbt.Current_Directory>
/home/itssahil/PROJECTS/Mol_Feturizer/New_Systems/rnas/4LX5

>  <Rbt.Executable>
rbdock ($Id: //depot/dev/client3/rdock/2013.1/src/exe/rbdock.cxx#4 $)

>  <Rbt.Library>
libRbt.so (2013.1, Build901 2013/11/27)

>  <Rbt.Parameter_File>
/export/apps/rDock/src/rDock_2013.1_src/data/scripts/dock_solv.prm

>  <Rbt.Receptor>
prm/blind_docking_60.prm

>  <SCORE>
-14.1275

>  <SCORE.INTER>
-14.1275

>  <SCORE.INTER.CONST>
1

>  <SCORE.INTER.POLAR>
0

>  <SCORE.INTER.ROT>
0

>  <SCORE.INTER.SOLV>
18.937

>  <SCORE.INTER.VDW>
-19.3307

>  <SCORE.INTER.norm>
-1.17729

>  <SCORE.INTRA>
0

>  <SCORE.INTRA.DIHEDRAL>
0

>  <SCORE.INTRA.DIHEDRAL.0>
0

>  <SCORE.INTRA.POLAR>
0

>  <SCORE.INTRA.POLAR.0>
0

>  <SCORE.INTRA.REPUL>
0

>  <SCORE.INTRA.REPUL.0>
0

>  <SCORE.INTRA.SOLV>
0

>  <SCORE.INTRA.SOLV.lig_0>
-48.1583

>  <SCORE.INTRA.VDW>
0

>  <SCORE.INTRA.VDW.0>
0

>  <SCORE.INTRA.norm>
0

>  <SCORE.RESTR>
0

>  <SCORE.RESTR.CAVITY>
0

>  <SCORE.RESTR.norm>
0

>  <SCORE.SYSTEM>
0

>  <SCORE.SYSTEM.CONST>
0

>  <SCORE.SYSTEM.DIHEDRAL>
0

>  <SCORE.SYSTEM.SOLV>
0

>  <SCORE.SYSTEM.norm>
0

>  <SCORE.heavy>
12

>  <SCORE.norm>
-1.17729

>  <RMSD>
0.420

$$$$
ligand
 OpenBabel11021811503D
libRbt.so/2013.1/901 2013/11/27
 12 13  0  0  0  0  0  0  0  0999 V2000
    6.6802   17.5590    1.7443 C   0  0  0  0  0  0  0  0  0  0  0  0
    5.3352   16.3064    3.1785 C   0  0  0  0  0  0  0  0  0  0  0  0
    7.1779   17.7508    0.5259 N   0  0  0  0  0  0  0  0  0  0  0  0
    4.5357   15.2683    3.4469 N   0  0  0  0  0  0  0  0  0  0  0  0
    5.8671   16.5029    1.9648 N   0  0  0  0  0  0  0  0  0  0  0  0
    6.9721   18.4346    2.7316 N   0  0  0  0  0  0  0  0  0  0  0  0
    5.4076   17.8834    6.5215 N   0  0  0  0  0  0  0  0  0  0  0  0
    6.2516   18.9722    6.2536 C   0  0  0  0  0  0  0  0  0  0  0  0
    6.7896   19.1476    4.9573 N   0  0  0  0  0  0  0  0  0  0  0  0
    6.4671   18.2729    3.9801 C   0  0  0  0  0  0  0  0  0  0  0  0
    5.6183   17.1893    4.2279 C   0  0  0  0  0  0  0  0  0  0  0  0
    5.0776   16.9768    5.4947 C   0  0  0  0  0  0  0  0  0  0  0  0
  1  3  1  0  0  0  0
  1  5  1  0  0  0  0
  1  6  2  0  0  0  0
  2  5  2  0  0  0  0
  2 11  1  0  0  0  0
  2  4  1  0  0  0  0
  6 10  1  0  0  0  0
  7  8  2  0  0  0  0
  7 12  1  0  0  0  0
  8  9  1  0  0  0  0
  9 10  2  0  0  0  0
 10 11  1  0  0  0  0
 11 12  2  0  0  0  0
M  END
>  <CHROM.1>
6.02345002,17.52017445,3.72200390,-1.31930045,0.91533890,1.15168978

>  <Name>
ligand

>  <RI>
0

>  <Rbt.Current_Directory>
/home/itssahil/PROJECTS/Mol_Feturizer/New_Systems/rnas/4LX5

>  <Rbt.Executable>
rbdock ($Id: //depot/dev/client3/rdock/2013.1/src/exe/rbdock.cxx#4 $)

>  <Rbt.Library>
libRbt.so (2013.1, Build901 2013/11/27)

>  <Rbt.Parameter_File>
/export/apps/rDock/src/rDock_2013.1_src/data/scripts/dock_solv.prm

>  <Rbt.Receptor>
prm/pocket_docking_4.prm

>  <SCORE>
-14.1097

>  <SCORE.INTER>
-14.1097

>  <SCORE.INTER.CONST>
1

>  <SCORE.INTER.POLAR>
0

>  <SCORE.INTER.ROT>
0

>  <SCORE.INTER.SOLV>
18.9226

>  <SCORE.INTER.VDW>
-19.314

>  <SCORE.INTER.norm>
-1.17581

>  <SCORE.INTRA>
0

>  <SCORE.INTRA.DIHEDRAL>
0

>  <SCORE.INTRA.DIHEDRAL.0>
0

>  <SCORE.INTRA.POLAR>
0

>  <SCORE.INTRA.POLAR.0>
0

>  <SCORE.INTRA.REPUL>
0

>  <SCORE.INTRA.REPUL.0>
0

>  <SCORE.INTRA.SOLV>
0

>  <SCORE.INTRA.SOLV.lig_0>
-48.1583

>  <SCORE.INTRA.VDW>
0

>  <SCORE.INTRA.VDW.0>
0

>  <SCORE.INTRA.norm>
0

>  <SCORE.RESTR>
0

>  <SCORE.RESTR.CAVITY>
0

>  <SCORE.RESTR.norm>
0

>  <SCORE.SYSTEM>
0

>  <SCORE.SYSTEM.CONST>
0

>  <SCORE.SYSTEM.DIHEDRAL>
0

>  <SCORE.SYSTEM.SOLV>
0

>  <SCORE.SYSTEM.norm>
0

>  <SCORE.heavy>
12

>  <SCORE.norm>
-1.17581

>  <RMSD>
0.420

$$$$
ligand
 OpenBabel11021811503D
libRbt.so/2013.1/901 2013/11/27
 12 13  0  0  0  0  0  0  0  0999 V2000
    6.6760   17.5530    1.7421 C   0  0  0  0  0  0  0  0  0  0  0  0
    5.3336   16.3035    3.1813 C   0  0  0  0  0  0  0  0  0  0  0  0
    7.1720   17.7420    0.5226 N   0  0  0  0  0  0  0  0  0  0  0  0
    4.5349   15.2656    3.4534 N   0  0  0  0  0  0  0  0  0  0  0  0
    5.8637   16.4971    1.9664 N   0  0  0  0  0  0  0  0  0  0  0  0
    6.9688   18.4313    2.7267 N   0  0  0  0  0  0  0  0  0  0  0  0
    5.4096   17.8890    6.5202 N   0  0  0  0  0  0  0  0  0  0  0  0
    6.2527   18.9775    6.2483 C   0  0  0  0  0  0  0  0  0  0  0  0
    6.7889   19.1499    4.9509 N   0  0  0  0  0  0  0  0  0  0  0  0
    6.4656   18.2726    3.9763 C   0  0  0  0  0  0  0  0  0  0  0  0
    5.6176   17.1892    4.2281 C   0  0  0  0  0  0  0  0  0  0  0  0
    5.0787   16.9796    5.4962 C   0  0  0  0  0  0  0  0  0  0  0  0
  1  3  1  0  0  0  0
  1  5  1  0  0  0  0
  1  6  2  0  0  0  0
  2  5  2  0  0  0  0
  2 11  1  0  0  0  0
  2  4  1  0  0  0  0
  6 10  1  0  0  0  0
  7  8  2  0  0  0  0
  7 12  1  0  0  0  0
  8  9  1  0  0  0  0
  9 10  2  0  0  0  0
 10 11  1  0  0  0  0
 11 12  2  0  0  0  0
M  END
>  <CHROM.1>
6.02191813,17.51893372,3.72078640,-1.32098399,0.91633580,1.15047305

>  <Name>
ligand

>  <RI>
0

>  <Rbt.Current_Directory>
/home/itssahil/PROJECTS/Mol_Feturizer/New_Systems/rnas/4LX5

>  <Rbt.Executable>
rbdock ($Id: //depot/dev/client3/rdock/2013.1/src/exe/rbdock.cxx#4 $)

>  <Rbt.Library>
libRbt.so (2013.1, Build901 2013/11/27)

>  <Rbt.Parameter_File>
/export/apps/rDock/src/rDock_2013.1_src/data/scripts/dock_solv.prm

>  <Rbt.Receptor>
prm/pocket_docking_6.prm

>  <SCORE>
-14.1462

>  <SCORE.INTER>
-14.1462

>  <SCORE.INTER.CONST>
1

>  <SCORE.INTER.POLAR>
0

>  <SCORE.INTER.ROT>
0

>  <SCORE.INTER.SOLV>
18.9139

>  <SCORE.INTER.VDW>
-19.3354

>  <SCORE.INTER.norm>
-1.17885

>  <SCORE.INTRA>
0

>  <SCORE.INTRA.DIHEDRAL>
0

>  <SCORE.INTRA.DIHEDRAL.0>
0

>  <SCORE.INTRA.POLAR>
0

>  <SCORE.INTRA.POLAR.0>
0

>  <SCORE.INTRA.REPUL>
0

>  <SCORE.INTRA.REPUL.0>
0

>  <SCORE.INTRA.SOLV>
0

>  <SCORE.INTRA.SOLV.lig_0>
-48.1583

>  <SCORE.INTRA.VDW>
0

>  <SCORE.INTRA.VDW.0>
0

>  <SCORE.INTRA.norm>
0

>  <SCORE.RESTR>
0

>  <SCORE.RESTR.CAVITY>
0

>  <SCORE.RESTR.norm>
0

>  <SCORE.SYSTEM>
0

>  <SCORE.SYSTEM.CONST>
0

>  <SCORE.SYSTEM.DIHEDRAL>
0

>  <SCORE.SYSTEM.SOLV>
0

>  <SCORE.SYSTEM.norm>
0

>  <SCORE.heavy>
12

>  <SCORE.norm>
-1.17885

>  <RMSD>
0.420

$$$$
ligand
 OpenBabel11021811503D
libRbt.so/2013.1/901 2013/11/27
 12 13  0  0  0  0  0  0  0  0999 V2000
    6.6710   17.5518    1.7381 C   0  0  0  0  0  0  0  0  0  0  0  0
    5.3312   16.3048    3.1820 C   0  0  0  0  0  0  0  0  0  0  0  0
    7.1609   17.7414    0.5163 N   0  0  0  0  0  0  0  0  0  0  0  0
    4.5295   15.2698    3.4562 N   0  0  0  0  0  0  0  0  0  0  0  0
    5.8553   16.4989    1.9645 N   0  0  0  0  0  0  0  0  0  0  0  0
    6.9731   18.4266    2.7231 N   0  0  0  0  0  0  0  0  0  0  0  0
    5.4329   17.8823    6.5240 N   0  0  0  0  0  0  0  0  0  0  0  0
    6.2792   18.9677    6.2499 C   0  0  0  0  0  0  0  0  0  0  0  0
    6.8089   19.1407    4.9498 N   0  0  0  0  0  0  0  0  0  0  0  0
    6.4762   18.2671    3.9751 C   0  0  0  0  0  0  0  0  0  0  0  0
    5.6250   17.1869    4.2292 C   0  0  0  0  0  0  0  0  0  0  0  0
    5.0923   16.9767    5.4998 C   0  0  0  0  0  0  0  0  0  0  0  0
  1  3  1  0  0  0  0
  1  5  1  0  0  0  0
  1  6  2  0  0  0  0
  2  5  2  0  0  0  0
  2 11  1  0  0  0  0
  2  4  1  0  0  0  0
  6 10  1  0  0  0  0
  7  8  2  0  0  0  0
  7 12  1  0  0  0  0
  8  9  1  0  0  0  0
  9 10  2  0  0  0  0
 10 11  1  0  0  0  0
 11 12  2  0  0  0  0
M  END
>  <CHROM.1>
6.02785161,17.51601977,3.72035977,-1.33230963,0.91460144,1.16175922

>  <Name>
ligand

>  <RI>
0

>  <Rbt.Current_Directory>
/home/itssahil/PROJECTS/Mol_Feturizer/New_Systems/rnas/4LX5

>  <Rbt.Executable>
rbdock ($Id: //depot/dev/client3/rdock/2013.1/src/exe/rbdock.cxx#4 $)

>  <Rbt.Library>
libRbt.so (2013.1, Build901 2013/11/27)

>  <Rbt.Parameter_File>
/export/apps/rDock/src/rDock_2013.1_src/data/scripts/dock_solv.prm

>  <Rbt.Receptor>
prm/pocket_docking_8.prm

>  <SCORE>
-14.1084

>  <SCORE.INTER>
-14.1084

>  <SCORE.INTER.CONST>
1

>  <SCORE.INTER.POLAR>
0

>  <SCORE.INTER.ROT>
0

>  <SCORE.INTER.SOLV>
18.8773

>  <SCORE.INTER.VDW>
-19.298

>  <SCORE.INTER.norm>
-1.1757

>  <SCORE.INTRA>
0

>  <SCORE.INTRA.DIHEDRAL>
0

>  <SCORE.INTRA.DIHEDRAL.0>
0

>  <SCORE.INTRA.POLAR>
0

>  <SCORE.INTRA.POLAR.0>
0

>  <SCORE.INTRA.REPUL>
0

>  <SCORE.INTRA.REPUL.0>
0

>  <SCORE.INTRA.SOLV>
0

>  <SCORE.INTRA.SOLV.lig_0>
-48.1583

>  <SCORE.INTRA.VDW>
0

>  <SCORE.INTRA.VDW.0>
0

>  <SCORE.INTRA.norm>
0

>  <SCORE.RESTR>
0

>  <SCORE.RESTR.CAVITY>
0

>  <SCORE.RESTR.norm>
0

>  <SCORE.SYSTEM>
0

>  <SCORE.SYSTEM.CONST>
0

>  <SCORE.SYSTEM.DIHEDRAL>
0

>  <SCORE.SYSTEM.SOLV>
0

>  <SCORE.SYSTEM.norm>
0

>  <SCORE.heavy>
12

>  <SCORE.norm>
-1.1757

>  <RMSD>
0.420

$$$$
ligand
 OpenBabel11021811503D
libRbt.so/2013.1/901 2013/11/27
 12 13  0  0  0  0  0  0  0  0999 V2000
    6.6747   17.5612    1.7417 C   0  0  0  0  0  0  0  0  0  0  0  0
    5.3329   16.3095    3.1796 C   0  0  0  0  0  0  0  0  0  0  0  0
    7.1682   17.7534    0.5217 N   0  0  0  0  0  0  0  0  0  0  0  0
    4.5325   15.2724    3.4498 N   0  0  0  0  0  0  0  0  0  0  0  0
    5.8606   16.5062    1.9640 N   0  0  0  0  0  0  0  0  0  0  0  0
    6.9718   18.4353    2.7288 N   0  0  0  0  0  0  0  0  0  0  0  0
    5.4206   17.8827    6.5239 N   0  0  0  0  0  0  0  0  0  0  0  0
    6.2655   18.9703    6.2540 C   0  0  0  0  0  0  0  0  0  0  0  0
    6.7990   19.1461    4.9559 N   0  0  0  0  0  0  0  0  0  0  0  0
    6.4713   18.2731    3.9790 C   0  0  0  0  0  0  0  0  0  0  0  0
    5.6215   17.1907    4.2289 C   0  0  0  0  0  0  0  0  0  0  0  0
    5.0851   16.9778    5.4975 C   0  0  0  0  0  0  0  0  0  0  0  0
  1  3  1  0  0  0  0
  1  5  1  0  0  0  0
  1  6  2  0  0  0  0
  2  5  2  0  0  0  0
  2 11  1  0  0  0  0
  2  4  1  0  0  0  0
  6 10  1  0  0  0  0
  7  8  2  0  0  0  0
  7 12  1  0  0  0  0
  8  9  1  0  0  0  0
  9 10  2  0  0  0  0
 10 11  1  0  0  0  0
 11 12  2  0  0  0  0
M  END
>  <CHROM.1>
6.02529652,17.52139160,3.72178234,-1.32610421,0.91523423,1.15816149

>  <Name>
ligand

>  <RI>
0

>  <Rbt.Current_Directory>
/home/itssahil/PROJECTS/Mol_Feturizer/New_Systems/rnas/4LX5

>  <Rbt.Executable>
rbdock ($Id: //depot/dev/client3/rdock/2013.1/src/exe/rbdock.cxx#4 $)

>  <Rbt.Library>
libRbt.so (2013.1, Build901 2013/11/27)

>  <Rbt.Parameter_File>
/export/apps/rDock/src/rDock_2013.1_src/data/scripts/dock_solv.prm

>  <Rbt.Receptor>
prm/blind_docking_40.prm

>  <SCORE>
-14.1114

>  <SCORE.INTER>
-14.1114

>  <SCORE.INTER.CONST>
1

>  <SCORE.INTER.POLAR>
0

>  <SCORE.INTER.ROT>
0

>  <SCORE.INTER.SOLV>
18.8999

>  <SCORE.INTER.VDW>
-19.3076

>  <SCORE.INTER.norm>
-1.17595

>  <SCORE.INTRA>
0

>  <SCORE.INTRA.DIHEDRAL>
0

>  <SCORE.INTRA.DIHEDRAL.0>
0

>  <SCORE.INTRA.POLAR>
0

>  <SCORE.INTRA.POLAR.0>
0

>  <SCORE.INTRA.REPUL>
0

>  <SCORE.INTRA.REPUL.0>
0

>  <SCORE.INTRA.SOLV>
0

>  <SCORE.INTRA.SOLV.lig_0>
-48.1583

>  <SCORE.INTRA.VDW>
0

>  <SCORE.INTRA.VDW.0>
0

>  <SCORE.INTRA.norm>
0

>  <SCORE.RESTR>
0

>  <SCORE.RESTR.CAVITY>
0

>  <SCORE.RESTR.norm>
0

>  <SCORE.SYSTEM>
0

>  <SCORE.SYSTEM.CONST>
0

>  <SCORE.SYSTEM.DIHEDRAL>
0

>  <SCORE.SYSTEM.SOLV>
0

>  <SCORE.SYSTEM.norm>
0

>  <SCORE.heavy>
12

>  <SCORE.norm>
-1.17595

>  <RMSD>
0.421

$$$$
ligand
 OpenBabel11021811503D
libRbt.so/2013.1/901 2013/11/27
 12 13  0  0  0  0  0  0  0  0999 V2000
    6.6734   17.5498    1.7413 C   0  0  0  0  0  0  0  0  0  0  0  0
    5.3320   16.3016    3.1827 C   0  0  0  0  0  0  0  0  0  0  0  0
    7.1697   17.7367    0.5216 N   0  0  0  0  0  0  0  0  0  0  0  0
    4.5347   15.2633    3.4568 N   0  0  0  0  0  0  0  0  0  0  0  0
    5.8624   16.4933    1.9676 N   0  0  0  0  0  0  0  0  0  0  0  0
    6.9646   18.4307    2.7242 N   0  0  0  0  0  0  0  0  0  0  0  0
    5.4045   17.8946    6.5181 N   0  0  0  0  0  0  0  0  0  0  0  0
    6.2463   18.9837    6.2442 C   0  0  0  0  0  0  0  0  0  0  0  0
    6.7828   19.1539    4.9466 N   0  0  0  0  0  0  0  0  0  0  0  0
    6.4610   18.2740    3.9739 C   0  0  0  0  0  0  0  0  0  0  0  0
    5.6145   17.1900    4.2277 C   0  0  0  0  0  0  0  0  0  0  0  0
    5.0753   16.9825    5.4960 C   0  0  0  0  0  0  0  0  0  0  0  0
  1  3  1  0  0  0  0
  1  5  1  0  0  0  0
  1  6  2  0  0  0  0
  2  5  2  0  0  0  0
  2 11  1  0  0  0  0
  2  4  1  0  0  0  0
  6 10  1  0  0  0  0
  7  8  2  0  0  0  0
  7 12  1  0  0  0  0
  8  9  1  0  0  0  0
  9 10  2  0  0  0  0
 10 11  1  0  0  0  0
 11 12  2  0  0  0  0
M  END
>  <CHROM.1>
6.01852160,17.51920465,3.71981160,-1.31943602,0.91738329,1.14704256

>  <Name>
ligand

>  <RI>
0

>  <Rbt.Current_Directory>
/home/itssahil/PROJECTS/Mol_Feturizer/New_Systems/rnas/4LX5

>  <Rbt.Executable>
rbdock ($Id: //depot/dev/client3/rdock/2013.1/src/exe/rbdock.cxx#4 $)

>  <Rbt.Library>
libRbt.so (2013.1, Build901 2013/11/27)

>  <Rbt.Parameter_File>
/export/apps/rDock/src/rDock_2013.1_src/data/scripts/dock_solv.prm

>  <Rbt.Receptor>
prm/blind_docking_60.prm

>  <SCORE>
-14.1453

>  <SCORE.INTER>
-14.1453

>  <SCORE.INTER.CONST>
1

>  <SCORE.INTER.POLAR>
0

>  <SCORE.INTER.ROT>
0

>  <SCORE.INTER.SOLV>
18.913

>  <SCORE.INTER.VDW>
-19.3345

>  <SCORE.INTER.norm>
-1.17877

>  <SCORE.INTRA>
0

>  <SCORE.INTRA.DIHEDRAL>
0

>  <SCORE.INTRA.DIHEDRAL.0>
0

>  <SCORE.INTRA.POLAR>
0

>  <SCORE.INTRA.POLAR.0>
0

>  <SCORE.INTRA.REPUL>
0

>  <SCORE.INTRA.REPUL.0>
0

>  <SCORE.INTRA.SOLV>
0

>  <SCORE.INTRA.SOLV.lig_0>
-48.1583

>  <SCORE.INTRA.VDW>
0

>  <SCORE.INTRA.VDW.0>
0

>  <SCORE.INTRA.norm>
0

>  <SCORE.RESTR>
0

>  <SCORE.RESTR.CAVITY>
0

>  <SCORE.RESTR.norm>
0

>  <SCORE.SYSTEM>
0

>  <SCORE.SYSTEM.CONST>
0

>  <SCORE.SYSTEM.DIHEDRAL>
0

>  <SCORE.SYSTEM.SOLV>
0

>  <SCORE.SYSTEM.norm>
0

>  <SCORE.heavy>
12

>  <SCORE.norm>
-1.17877

>  <RMSD>
0.421

$$$$
ligand
 OpenBabel11021811503D
libRbt.so/2013.1/901 2013/11/27
 12 13  0  0  0  0  0  0  0  0999 V2000
    6.6817   17.5505    1.7433 C   0  0  0  0  0  0  0  0  0  0  0  0
    5.3290   16.3109    3.1815 C   0  0  0  0  0  0  0  0  0  0  0  0
    7.1791   17.7365    0.5239 N   0  0  0  0  0  0  0  0  0  0  0  0
    4.5217   15.2795    3.4526 N   0  0  0  0  0  0  0  0  0  0  0  0
    5.8606   16.5012    1.9666 N   0  0  0  0  0  0  0  0  0  0  0  0
    6.9819   18.4254    2.7288 N   0  0  0  0  0  0  0  0  0  0  0  0
    5.4187   17.8925    6.5218 N   0  0  0  0  0  0  0  0  0  0  0  0
    6.2709   18.9741    6.2510 C   0  0  0  0  0  0  0  0  0  0  0  0
    6.8084   19.1432    4.9536 N   0  0  0  0  0  0  0  0  0  0  0  0
    6.4775   18.2696    3.9783 C   0  0  0  0  0  0  0  0  0  0  0  0
    5.6206   17.1931    4.2291 C   0  0  0  0  0  0  0  0  0  0  0  0
    5.0801   16.9868    5.4970 C   0  0  0  0  0  0  0  0  0  0  0  0
  1  3  1  0  0  0  0
  1  5  1  0  0  0  0
  1  6  2  0  0  0  0
  2  5  2  0  0  0  0
  2 11  1  0  0  0  0
  2  4  1  0  0  0  0
  6 10  1  0  0  0  0
  7  8  2  0  0  0  0
  7 12  1  0  0  0  0
  8  9  1  0  0  0  0
  9 10  2  0  0  0  0
 10 11  1  0  0  0  0
 11 12  2  0  0  0  0
M  END
>  <CHROM.1>
6.02756511,17.51998482,3.72203588,-1.32671101,0.90871120,1.15598148

>  <Name>
ligand

>  <RI>
0

>  <Rbt.Current_Directory>
/home/itssahil/PROJECTS/Mol_Feturizer/New_Systems/rnas/4LX5

>  <Rbt.Executable>
rbdock ($Id: //depot/dev/client3/rdock/2013.1/src/exe/rbdock.cxx#4 $)

>  <Rbt.Library>
libRbt.so (2013.1, Build901 2013/11/27)

>  <Rbt.Parameter_File>
/export/apps/rDock/src/rDock_2013.1_src/data/scripts/dock_solv.prm

>  <Rbt.Receptor>
prm/blind_docking_80.prm

>  <SCORE>
-14.1444

>  <SCORE.INTER>
-14.1444

>  <SCORE.INTER.CONST>
1

>  <SCORE.INTER.POLAR>
0

>  <SCORE.INTER.ROT>
0

>  <SCORE.INTER.SOLV>
18.8497

>  <SCORE.INTER.VDW>
-19.3128

>  <SCORE.INTER.norm>
-1.1787

>  <SCORE.INTRA>
0

>  <SCORE.INTRA.DIHEDRAL>
0

>  <SCORE.INTRA.DIHEDRAL.0>
0

>  <SCORE.INTRA.POLAR>
0

>  <SCORE.INTRA.POLAR.0>
0

>  <SCORE.INTRA.REPUL>
0

>  <SCORE.INTRA.REPUL.0>
0

>  <SCORE.INTRA.SOLV>
0

>  <SCORE.INTRA.SOLV.lig_0>
-48.1583

>  <SCORE.INTRA.VDW>
0

>  <SCORE.INTRA.VDW.0>
0

>  <SCORE.INTRA.norm>
0

>  <SCORE.RESTR>
0

>  <SCORE.RESTR.CAVITY>
0

>  <SCORE.RESTR.norm>
0

>  <SCORE.SYSTEM>
0

>  <SCORE.SYSTEM.CONST>
0

>  <SCORE.SYSTEM.DIHEDRAL>
0

>  <SCORE.SYSTEM.SOLV>
0

>  <SCORE.SYSTEM.norm>
0

>  <SCORE.heavy>
12

>  <SCORE.norm>
-1.1787

>  <RMSD>
0.421

$$$$
ligand
 OpenBabel11021811503D
libRbt.so/2013.1/901 2013/11/27
 12 13  0  0  0  0  0  0  0  0999 V2000
    6.6744   17.5529    1.7413 C   0  0  0  0  0  0  0  0  0  0  0  0
    5.3305   16.3060    3.1815 C   0  0  0  0  0  0  0  0  0  0  0  0
    7.1694   17.7412    0.5213 N   0  0  0  0  0  0  0  0  0  0  0  0
    4.5296   15.2700    3.4540 N   0  0  0  0  0  0  0  0  0  0  0  0
    5.8597   16.4988    1.9660 N   0  0  0  0  0  0  0  0  0  0  0  0
    6.9704   18.4300    2.7261 N   0  0  0  0  0  0  0  0  0  0  0  0
    5.4144   17.8897    6.5210 N   0  0  0  0  0  0  0  0  0  0  0  0
    6.2598   18.9762    6.2487 C   0  0  0  0  0  0  0  0  0  0  0  0
    6.7950   19.1479    4.9507 N   0  0  0  0  0  0  0  0  0  0  0  0
    6.4683   18.2718    3.9762 C   0  0  0  0  0  0  0  0  0  0  0  0
    5.6180   17.1904    4.2284 C   0  0  0  0  0  0  0  0  0  0  0  0
    5.0800   16.9816    5.4970 C   0  0  0  0  0  0  0  0  0  0  0  0
  1  3  1  0  0  0  0
  1  5  1  0  0  0  0
  1  6  2  0  0  0  0
  2  5  2  0  0  0  0
  2 11  1  0  0  0  0
  2  4  1  0  0  0  0
  6 10  1  0  0  0  0
  7  8  2  0  0  0  0
  7 12  1  0  0  0  0
  8  9  1  0  0  0  0
  9 10  2  0  0  0  0
 10 11  1  0  0  0  0
 11 12  2  0  0  0  0
M  END
>  <CHROM.1>
6.02248092,17.51945298,3.72076310,-1.32436488,0.91455638,1.15364333

>  <Name>
ligand

>  <RI>
0

>  <Rbt.Current_Directory>
/home/itssahil/PROJECTS/Mol_Feturizer/New_Systems/rnas/4LX5

>  <Rbt.Executable>
rbdock ($Id: //depot/dev/client3/rdock/2013.1/src/exe/rbdock.cxx#4 $)

>  <Rbt.Library>
libRbt.so (2013.1, Build901 2013/11/27)

>  <Rbt.Parameter_File>
/export/apps/rDock/src/rDock_2013.1_src/data/scripts/dock_solv.prm

>  <Rbt.Receptor>
prm/pocket_docking_4.prm

>  <SCORE>
-14.1464

>  <SCORE.INTER>
-14.1464

>  <SCORE.INTER.CONST>
1

>  <SCORE.INTER.POLAR>
0

>  <SCORE.INTER.ROT>
0

>  <SCORE.INTER.SOLV>
18.8878

>  <SCORE.INTER.VDW>
-19.3268

>  <SCORE.INTER.norm>
-1.17886

>  <SCORE.INTRA>
0

>  <SCORE.INTRA.DIHEDRAL>
0

>  <SCORE.INTRA.DIHEDRAL.0>
0

>  <SCORE.INTRA.POLAR>
0

>  <SCORE.INTRA.POLAR.0>
0

>  <SCORE.INTRA.REPUL>
0

>  <SCORE.INTRA.REPUL.0>
0

>  <SCORE.INTRA.SOLV>
0

>  <SCORE.INTRA.SOLV.lig_0>
-48.1583

>  <SCORE.INTRA.VDW>
0

>  <SCORE.INTRA.VDW.0>
0

>  <SCORE.INTRA.norm>
0

>  <SCORE.RESTR>
0

>  <SCORE.RESTR.CAVITY>
0

>  <SCORE.RESTR.norm>
0

>  <SCORE.SYSTEM>
0

>  <SCORE.SYSTEM.CONST>
0

>  <SCORE.SYSTEM.DIHEDRAL>
0

>  <SCORE.SYSTEM.SOLV>
0

>  <SCORE.SYSTEM.norm>
0

>  <SCORE.heavy>
12

>  <SCORE.norm>
-1.17886

>  <RMSD>
0.421

$$$$
ligand
 OpenBabel11021811503D
libRbt.so/2013.1/901 2013/11/27
 12 13  0  0  0  0  0  0  0  0999 V2000
    6.6895   17.5821    1.7493 C   0  0  0  0  0  0  0  0  0  0  0  0
    5.3417   16.3181    3.1708 C   0  0  0  0  0  0  0  0  0  0  0  0
    7.1897   17.7835    0.5335 N   0  0  0  0  0  0  0  0  0  0  0  0
    4.5418   15.2777    3.4293 N   0  0  0  0  0  0  0  0  0  0  0  0
    5.8761   16.5241    1.9598 N   0  0  0  0  0  0  0  0  0  0  0  0
    6.9792   18.4500    2.7441 N   0  0  0  0  0  0  0  0  0  0  0  0
    5.4069   17.8687    6.5263 N   0  0  0  0  0  0  0  0  0  0  0  0
    6.2513   18.9597    6.2687 C   0  0  0  0  0  0  0  0  0  0  0  0
    6.7920   19.1453    4.9749 N   0  0  0  0  0  0  0  0  0  0  0  0
    6.4716   18.2783    3.9902 C   0  0  0  0  0  0  0  0  0  0  0  0
    5.6225   17.1927    4.2278 C   0  0  0  0  0  0  0  0  0  0  0  0
    5.0792   16.9701    5.4917 C   0  0  0  0  0  0  0  0  0  0  0  0
  1  3  1  0  0  0  0
  1  5  1  0  0  0  0
  1  6  2  0  0  0  0
  2  5  2  0  0  0  0
  2 11  1  0  0  0  0
  2  4  1  0  0  0  0
  6 10  1  0  0  0  0
  7  8  2  0  0  0  0
  7 12  1  0  0  0  0
  8  9  1  0  0  0  0
  9 10  2  0  0  0  0
 10 11  1  0  0  0  0
 11 12  2  0  0  0  0
M  END
>  <CHROM.1>
6.02861481,17.52758230,3.72528225,-1.31608181,0.91462806,1.15701171

>  <Name>
ligand

>  <RI>
0

>  <Rbt.Current_Directory>
/home/itssahil/PROJECTS/Mol_Feturizer/New_Systems/rnas/4LX5

>  <Rbt.Executable>
rbdock ($Id: //depot/dev/client3/rdock/2013.1/src/exe/rbdock.cxx#4 $)

>  <Rbt.Library>
libRbt.so (2013.1, Build901 2013/11/27)

>  <Rbt.Parameter_File>
/export/apps/rDock/src/rDock_2013.1_src/data/scripts/dock_solv.prm

>  <Rbt.Receptor>
prm/pocket_docking_6.prm

>  <SCORE>
-14.1026

>  <SCORE.INTER>
-14.1026

>  <SCORE.INTER.CONST>
1

>  <SCORE.INTER.POLAR>
0

>  <SCORE.INTER.ROT>
0

>  <SCORE.INTER.SOLV>
18.9624

>  <SCORE.INTER.VDW>
-19.3225

>  <SCORE.INTER.norm>
-1.17521

>  <SCORE.INTRA>
0

>  <SCORE.INTRA.DIHEDRAL>
0

>  <SCORE.INTRA.DIHEDRAL.0>
0

>  <SCORE.INTRA.POLAR>
0

>  <SCORE.INTRA.POLAR.0>
0

>  <SCORE.INTRA.REPUL>
0

>  <SCORE.INTRA.REPUL.0>
0

>  <SCORE.INTRA.SOLV>
0

>  <SCORE.INTRA.SOLV.lig_0>
-48.1583

>  <SCORE.INTRA.VDW>
0

>  <SCORE.INTRA.VDW.0>
0

>  <SCORE.INTRA.norm>
0

>  <SCORE.RESTR>
0

>  <SCORE.RESTR.CAVITY>
0

>  <SCORE.RESTR.norm>
0

>  <SCORE.SYSTEM>
0

>  <SCORE.SYSTEM.CONST>
0

>  <SCORE.SYSTEM.DIHEDRAL>
0

>  <SCORE.SYSTEM.SOLV>
0

>  <SCORE.SYSTEM.norm>
0

>  <SCORE.heavy>
12

>  <SCORE.norm>
-1.17521

>  <RMSD>
0.421

$$$$
ligand
 OpenBabel11021811503D
libRbt.so/2013.1/901 2013/11/27
 12 13  0  0  0  0  0  0  0  0999 V2000
    6.6714   17.5414    1.7393 C   0  0  0  0  0  0  0  0  0  0  0  0
    5.3277   16.3015    3.1857 C   0  0  0  0  0  0  0  0  0  0  0  0
    7.1644   17.7252    0.5178 N   0  0  0  0  0  0  0  0  0  0  0  0
    4.5250   15.2680    3.4626 N   0  0  0  0  0  0  0  0  0  0  0  0
    5.8549   16.4898    1.9686 N   0  0  0  0  0  0  0  0  0  0  0  0
    6.9713   18.4206    2.7210 N   0  0  0  0  0  0  0  0  0  0  0  0
    5.4216   17.8944    6.5205 N   0  0  0  0  0  0  0  0  0  0  0  0
    6.2688   18.9783    6.2435 C   0  0  0  0  0  0  0  0  0  0  0  0
    6.8018   19.1452    4.9440 N   0  0  0  0  0  0  0  0  0  0  0  0
    6.4713   18.2671    3.9725 C   0  0  0  0  0  0  0  0  0  0  0  0
    5.6191   17.1883    4.2295 C   0  0  0  0  0  0  0  0  0  0  0  0
    5.0832   16.9841    5.4997 C   0  0  0  0  0  0  0  0  0  0  0  0
  1  3  1  0  0  0  0
  1  5  1  0  0  0  0
  1  6  2  0  0  0  0
  2  5  2  0  0  0  0
  2 11  1  0  0  0  0
  2  4  1  0  0  0  0
  6 10  1  0  0  0  0
  7  8  2  0  0  0  0
  7 12  1  0  0  0  0
  8  9  1  0  0  0  0
  9 10  2  0  0  0  0
 10 11  1  0  0  0  0
 11 12  2  0  0  0  0
M  END
>  <CHROM.1>
6.02332584,17.51496587,3.72012407,-1.32876664,0.91335159,1.15431786

>  <Name>
ligand

>  <RI>
0

>  <Rbt.Current_Directory>
/home/itssahil/PROJECTS/Mol_Feturizer/New_Systems/rnas/4LX5

>  <Rbt.Executable>
rbdock ($Id: //depot/dev/client3/rdock/2013.1/src/exe/rbdock.cxx#4 $)

>  <Rbt.Library>
libRbt.so (2013.1, Build901 2013/11/27)

>  <Rbt.Parameter_File>
/export/apps/rDock/src/rDock_2013.1_src/data/scripts/dock_solv.prm

>  <Rbt.Receptor>
prm/pocket_docking_8.prm

>  <SCORE>
-14.145

>  <SCORE.INTER>
-14.145

>  <SCORE.INTER.CONST>
1

>  <SCORE.INTER.POLAR>
0

>  <SCORE.INTER.ROT>
0

>  <SCORE.INTER.SOLV>
18.8594

>  <SCORE.INTER.VDW>
-19.3165

>  <SCORE.INTER.norm>
-1.17875

>  <SCORE.INTRA>
0

>  <SCORE.INTRA.DIHEDRAL>
0

>  <SCORE.INTRA.DIHEDRAL.0>
0

>  <SCORE.INTRA.POLAR>
0

>  <SCORE.INTRA.POLAR.0>
0

>  <SCORE.INTRA.REPUL>
0

>  <SCORE.INTRA.REPUL.0>
0

>  <SCORE.INTRA.SOLV>
0

>  <SCORE.INTRA.SOLV.lig_0>
-48.1583

>  <SCORE.INTRA.VDW>
0

>  <SCORE.INTRA.VDW.0>
0

>  <SCORE.INTRA.norm>
0

>  <SCORE.RESTR>
0

>  <SCORE.RESTR.CAVITY>
0

>  <SCORE.RESTR.norm>
0

>  <SCORE.SYSTEM>
0

>  <SCORE.SYSTEM.CONST>
0

>  <SCORE.SYSTEM.DIHEDRAL>
0

>  <SCORE.SYSTEM.SOLV>
0

>  <SCORE.SYSTEM.norm>
0

>  <SCORE.heavy>
12

>  <SCORE.norm>
-1.17875

>  <RMSD>
0.421

$$$$
ligand
 OpenBabel11021811503D
libRbt.so/2013.1/901 2013/11/27
 12 13  0  0  0  0  0  0  0  0999 V2000
    6.6702   17.5464    1.7396 C   0  0  0  0  0  0  0  0  0  0  0  0
    5.3265   16.3048    3.1844 C   0  0  0  0  0  0  0  0  0  0  0  0
    7.1638   17.7313    0.5185 N   0  0  0  0  0  0  0  0  0  0  0  0
    4.5242   15.2707    3.4603 N   0  0  0  0  0  0  0  0  0  0  0  0
    5.8542   16.4942    1.9677 N   0  0  0  0  0  0  0  0  0  0  0  0
    6.9692   18.4251    2.7220 N   0  0  0  0  0  0  0  0  0  0  0  0
    5.4180   17.8954    6.5204 N   0  0  0  0  0  0  0  0  0  0  0  0
    6.2649   18.9800    6.2446 C   0  0  0  0  0  0  0  0  0  0  0  0
    6.7983   19.1480    4.9454 N   0  0  0  0  0  0  0  0  0  0  0  0
    6.4687   18.2704    3.9732 C   0  0  0  0  0  0  0  0  0  0  0  0
    5.6170   17.1910    4.2290 C   0  0  0  0  0  0  0  0  0  0  0  0
    5.0806   16.9857    5.4988 C   0  0  0  0  0  0  0  0  0  0  0  0
  1  3  1  0  0  0  0
  1  5  1  0  0  0  0
  1  6  2  0  0  0  0
  2  5  2  0  0  0  0
  2 11  1  0  0  0  0
  2  4  1  0  0  0  0
  6 10  1  0  0  0  0
  7  8  2  0  0  0  0
  7 12  1  0  0  0  0
  8  9  1  0  0  0  0
  9 10  2  0  0  0  0
 10 11  1  0  0  0  0
 11 12  2  0  0  0  0
M  END
>  <CHROM.1>
6.02128105,17.51823335,3.72004632,-1.32773518,0.91362045,1.15418970

>  <Name>
ligand

>  <RI>
0

>  <Rbt.Current_Directory>
/home/itssahil/PROJECTS/Mol_Feturizer/New_Systems/rnas/4LX5

>  <Rbt.Executable>
rbdock ($Id: //depot/dev/client3/rdock/2013.1/src/exe/rbdock.cxx#4 $)

>  <Rbt.Library>
libRbt.so (2013.1, Build901 2013/11/27)

>  <Rbt.Parameter_File>
/export/apps/rDock/src/rDock_2013.1_src/data/scripts/dock_solv.prm

>  <Rbt.Receptor>
prm/pocket_docking_4.prm

>  <SCORE>
-14.1464

>  <SCORE.INTER>
-14.1464

>  <SCORE.INTER.CONST>
1

>  <SCORE.INTER.POLAR>
0

>  <SCORE.INTER.ROT>
0

>  <SCORE.INTER.SOLV>
18.858

>  <SCORE.INTER.VDW>
-19.3169

>  <SCORE.INTER.norm>
-1.17887

>  <SCORE.INTRA>
0

>  <SCORE.INTRA.DIHEDRAL>
0

>  <SCORE.INTRA.DIHEDRAL.0>
0

>  <SCORE.INTRA.POLAR>
0

>  <SCORE.INTRA.POLAR.0>
0

>  <SCORE.INTRA.REPUL>
0

>  <SCORE.INTRA.REPUL.0>
0

>  <SCORE.INTRA.SOLV>
0

>  <SCORE.INTRA.SOLV.lig_0>
-48.1583

>  <SCORE.INTRA.VDW>
0

>  <SCORE.INTRA.VDW.0>
0

>  <SCORE.INTRA.norm>
0

>  <SCORE.RESTR>
0

>  <SCORE.RESTR.CAVITY>
0

>  <SCORE.RESTR.norm>
0

>  <SCORE.SYSTEM>
0

>  <SCORE.SYSTEM.CONST>
0

>  <SCORE.SYSTEM.DIHEDRAL>
0

>  <SCORE.SYSTEM.SOLV>
0

>  <SCORE.SYSTEM.norm>
0

>  <SCORE.heavy>
12

>  <SCORE.norm>
-1.17887

>  <RMSD>
0.422

$$$$
ligand
 OpenBabel11021811503D
libRbt.so/2013.1/901 2013/11/27
 12 13  0  0  0  0  0  0  0  0999 V2000
    6.6762   17.5544    1.7501 C   0  0  0  0  0  0  0  0  0  0  0  0
    5.3318   16.3000    3.1833 C   0  0  0  0  0  0  0  0  0  0  0  0
    7.1723   17.7486    0.5315 N   0  0  0  0  0  0  0  0  0  0  0  0
    4.5314   15.2621    3.4503 N   0  0  0  0  0  0  0  0  0  0  0  0
    5.8621   16.4987    1.9692 N   0  0  0  0  0  0  0  0  0  0  0  0
    6.9706   18.4273    2.7391 N   0  0  0  0  0  0  0  0  0  0  0  0
    5.4111   17.8686    6.5300 N   0  0  0  0  0  0  0  0  0  0  0  0
    6.2560   18.9570    6.2635 C   0  0  0  0  0  0  0  0  0  0  0  0
    6.7923   19.1349    4.9669 N   0  0  0  0  0  0  0  0  0  0  0  0
    6.4673   18.2631    3.9880 C   0  0  0  0  0  0  0  0  0  0  0  0
    5.6175   17.1799    4.2345 C   0  0  0  0  0  0  0  0  0  0  0  0
    5.0785   16.9649    5.5015 C   0  0  0  0  0  0  0  0  0  0  0  0
  1  3  1  0  0  0  0
  1  5  1  0  0  0  0
  1  6  2  0  0  0  0
  2  5  2  0  0  0  0
  2 11  1  0  0  0  0
  2  4  1  0  0  0  0
  6 10  1  0  0  0  0
  7  8  2  0  0  0  0
  7 12  1  0  0  0  0
  8  9  1  0  0  0  0
  9 10  2  0  0  0  0
 10 11  1  0  0  0  0
 11 12  2  0  0  0  0
M  END
>  <CHROM.1>
6.02232008,17.51152000,3.72872598,-1.32234819,0.91482641,1.15658255

>  <Name>
ligand

>  <RI>
0

>  <Rbt.Current_Directory>
/home/itssahil/PROJECTS/Mol_Feturizer/New_Systems/rnas/4LX5

>  <Rbt.Executable>
rbdock ($Id: //depot/dev/client3/rdock/2013.1/src/exe/rbdock.cxx#4 $)

>  <Rbt.Library>
libRbt.so (2013.1, Build901 2013/11/27)

>  <Rbt.Parameter_File>
/export/apps/rDock/src/rDock_2013.1_src/data/scripts/dock_solv.prm

>  <Rbt.Receptor>
prm/blind_docking_100.prm

>  <SCORE>
-14.1051

>  <SCORE.INTER>
-14.1051

>  <SCORE.INTER.CONST>
1

>  <SCORE.INTER.POLAR>
0

>  <SCORE.INTER.ROT>
0

>  <SCORE.INTER.SOLV>
18.908

>  <SCORE.INTER.VDW>
-19.3061

>  <SCORE.INTER.norm>
-1.17543

>  <SCORE.INTRA>
0

>  <SCORE.INTRA.DIHEDRAL>
0

>  <SCORE.INTRA.DIHEDRAL.0>
0

>  <SCORE.INTRA.POLAR>
0

>  <SCORE.INTRA.POLAR.0>
0

>  <SCORE.INTRA.REPUL>
0

>  <SCORE.INTRA.REPUL.0>
0

>  <SCORE.INTRA.SOLV>
0

>  <SCORE.INTRA.SOLV.lig_0>
-48.1583

>  <SCORE.INTRA.VDW>
0

>  <SCORE.INTRA.VDW.0>
0

>  <SCORE.INTRA.norm>
0

>  <SCORE.RESTR>
0

>  <SCORE.RESTR.CAVITY>
0

>  <SCORE.RESTR.norm>
0

>  <SCORE.SYSTEM>
0

>  <SCORE.SYSTEM.CONST>
0

>  <SCORE.SYSTEM.DIHEDRAL>
0

>  <SCORE.SYSTEM.SOLV>
0

>  <SCORE.SYSTEM.norm>
0

>  <SCORE.heavy>
12

>  <SCORE.norm>
-1.17543

>  <RMSD>
0.423

$$$$
ligand
 OpenBabel11021811503D
libRbt.so/2013.1/901 2013/11/27
 12 13  0  0  0  0  0  0  0  0999 V2000
    6.6772   17.5656    1.7495 C   0  0  0  0  0  0  0  0  0  0  0  0
    5.3346   16.3057    3.1795 C   0  0  0  0  0  0  0  0  0  0  0  0
    7.1715   17.7646    0.5309 N   0  0  0  0  0  0  0  0  0  0  0  0
    4.5342   15.2671    3.4435 N   0  0  0  0  0  0  0  0  0  0  0  0
    5.8631   16.5093    1.9655 N   0  0  0  0  0  0  0  0  0  0  0  0
    6.9734   18.4342    2.7416 N   0  0  0  0  0  0  0  0  0  0  0  0
    5.4195   17.8605    6.5326 N   0  0  0  0  0  0  0  0  0  0  0  0
    6.2644   18.9497    6.2693 C   0  0  0  0  0  0  0  0  0  0  0  0
    6.7988   19.1328    4.9725 N   0  0  0  0  0  0  0  0  0  0  0  0
    6.4720   18.2651    3.9906 C   0  0  0  0  0  0  0  0  0  0  0  0
    5.6222   17.1812    4.2339 C   0  0  0  0  0  0  0  0  0  0  0  0
    5.0850   16.9612    5.5009 C   0  0  0  0  0  0  0  0  0  0  0  0
  1  3  1  0  0  0  0
  1  5  1  0  0  0  0
  1  6  2  0  0  0  0
  2  5  2  0  0  0  0
  2 11  1  0  0  0  0
  2  4  1  0  0  0  0
  6 10  1  0  0  0  0
  7  8  2  0  0  0  0
  7 12  1  0  0  0  0
  8  9  1  0  0  0  0
  9 10  2  0  0  0  0
 10 11  1  0  0  0  0
 11 12  2  0  0  0  0
M  END
>  <CHROM.1>
6.02634390,17.51474572,3.72889941,-1.32488142,0.91510924,1.16270075

>  <Name>
ligand

>  <RI>
0

>  <Rbt.Current_Directory>
/home/itssahil/PROJECTS/Mol_Feturizer/New_Systems/rnas/4LX5

>  <Rbt.Executable>
rbdock ($Id: //depot/dev/client3/rdock/2013.1/src/exe/rbdock.cxx#4 $)

>  <Rbt.Library>
libRbt.so (2013.1, Build901 2013/11/27)

>  <Rbt.Parameter_File>
/export/apps/rDock/src/rDock_2013.1_src/data/scripts/dock_solv.prm

>  <Rbt.Receptor>
prm/pocket_docking_5.prm

>  <SCORE>
-14.1028

>  <SCORE.INTER>
-14.1028

>  <SCORE.INTER.CONST>
1

>  <SCORE.INTER.POLAR>
0

>  <SCORE.INTER.ROT>
0

>  <SCORE.INTER.SOLV>
18.9188

>  <SCORE.INTER.VDW>
-19.3081

>  <SCORE.INTER.norm>
-1.17523

>  <SCORE.INTRA>
0

>  <SCORE.INTRA.DIHEDRAL>
0

>  <SCORE.INTRA.DIHEDRAL.0>
0

>  <SCORE.INTRA.POLAR>
0

>  <SCORE.INTRA.POLAR.0>
0

>  <SCORE.INTRA.REPUL>
0

>  <SCORE.INTRA.REPUL.0>
0

>  <SCORE.INTRA.SOLV>
0

>  <SCORE.INTRA.SOLV.lig_0>
-48.1583

>  <SCORE.INTRA.VDW>
0

>  <SCORE.INTRA.VDW.0>
0

>  <SCORE.INTRA.norm>
0

>  <SCORE.RESTR>
0

>  <SCORE.RESTR.CAVITY>
0

>  <SCORE.RESTR.norm>
0

>  <SCORE.SYSTEM>
0

>  <SCORE.SYSTEM.CONST>
0

>  <SCORE.SYSTEM.DIHEDRAL>
0

>  <SCORE.SYSTEM.SOLV>
0

>  <SCORE.SYSTEM.norm>
0

>  <SCORE.heavy>
12

>  <SCORE.norm>
-1.17523

>  <RMSD>
0.423

$$$$
ligand
 OpenBabel11021811503D
libRbt.so/2013.1/901 2013/11/27
 12 13  0  0  0  0  0  0  0  0999 V2000
    6.6791   17.5576    1.7452 C   0  0  0  0  0  0  0  0  0  0  0  0
    5.3286   16.3127    3.1810 C   0  0  0  0  0  0  0  0  0  0  0  0
    7.1773   17.7460    0.5265 N   0  0  0  0  0  0  0  0  0  0  0  0
    4.5242   15.2786    3.4505 N   0  0  0  0  0  0  0  0  0  0  0  0
    5.8610   16.5056    1.9669 N   0  0  0  0  0  0  0  0  0  0  0  0
    6.9755   18.4327    2.7317 N   0  0  0  0  0  0  0  0  0  0  0  0
    5.4098   17.8921    6.5226 N   0  0  0  0  0  0  0  0  0  0  0  0
    6.2589   18.9766    6.2535 C   0  0  0  0  0  0  0  0  0  0  0  0
    6.7973   19.1483    4.9568 N   0  0  0  0  0  0  0  0  0  0  0  0
    6.4702   18.2744    3.9805 C   0  0  0  0  0  0  0  0  0  0  0  0
    5.6163   17.1951    4.2296 C   0  0  0  0  0  0  0  0  0  0  0  0
    5.0751   16.9862    5.4967 C   0  0  0  0  0  0  0  0  0  0  0  0
  1  3  1  0  0  0  0
  1  5  1  0  0  0  0
  1  6  2  0  0  0  0
  2  5  2  0  0  0  0
  2 11  1  0  0  0  0
  2  4  1  0  0  0  0
  6 10  1  0  0  0  0
  7  8  2  0  0  0  0
  7 12  1  0  0  0  0
  8  9  1  0  0  0  0
  9 10  2  0  0  0  0
 10 11  1  0  0  0  0
 11 12  2  0  0  0  0
M  END
>  <CHROM.1>
6.02285740,17.52356821,3.72320827,-1.32303782,0.91109648,1.15382050

>  <Name>
ligand

>  <RI>
0

>  <Rbt.Current_Directory>
/home/itssahil/PROJECTS/Mol_Feturizer/New_Systems/rnas/4LX5

>  <Rbt.Executable>
rbdock ($Id: //depot/dev/client3/rdock/2013.1/src/exe/rbdock.cxx#4 $)

>  <Rbt.Library>
libRbt.so (2013.1, Build901 2013/11/27)

>  <Rbt.Parameter_File>
/export/apps/rDock/src/rDock_2013.1_src/data/scripts/dock_solv.prm

>  <Rbt.Receptor>
prm/pocket_docking_6.prm

>  <SCORE>
-14.1451

>  <SCORE.INTER>
-14.1451

>  <SCORE.INTER.CONST>
1

>  <SCORE.INTER.POLAR>
0

>  <SCORE.INTER.ROT>
0

>  <SCORE.INTER.SOLV>
18.8681

>  <SCORE.INTER.VDW>
-19.3195

>  <SCORE.INTER.norm>
-1.17876

>  <SCORE.INTRA>
0

>  <SCORE.INTRA.DIHEDRAL>
0

>  <SCORE.INTRA.DIHEDRAL.0>
0

>  <SCORE.INTRA.POLAR>
0

>  <SCORE.INTRA.POLAR.0>
0

>  <SCORE.INTRA.REPUL>
0

>  <SCORE.INTRA.REPUL.0>
0

>  <SCORE.INTRA.SOLV>
0

>  <SCORE.INTRA.SOLV.lig_0>
-48.1583

>  <SCORE.INTRA.VDW>
0

>  <SCORE.INTRA.VDW.0>
0

>  <SCORE.INTRA.norm>
0

>  <SCORE.RESTR>
0

>  <SCORE.RESTR.CAVITY>
0

>  <SCORE.RESTR.norm>
0

>  <SCORE.SYSTEM>
0

>  <SCORE.SYSTEM.CONST>
0

>  <SCORE.SYSTEM.DIHEDRAL>
0

>  <SCORE.SYSTEM.SOLV>
0

>  <SCORE.SYSTEM.norm>
0

>  <SCORE.heavy>
12

>  <SCORE.norm>
-1.17876

>  <RMSD>
0.423

$$$$
ligand
 OpenBabel11021811503D
libRbt.so/2013.1/901 2013/11/27
 12 13  0  0  0  0  0  0  0  0999 V2000
    6.6745   17.5489    1.7442 C   0  0  0  0  0  0  0  0  0  0  0  0
    5.3249   16.3078    3.1842 C   0  0  0  0  0  0  0  0  0  0  0  0
    7.1720   17.7340    0.5248 N   0  0  0  0  0  0  0  0  0  0  0  0
    4.5207   15.2745    3.4569 N   0  0  0  0  0  0  0  0  0  0  0  0
    5.8565   16.4974    1.9692 N   0  0  0  0  0  0  0  0  0  0  0  0
    6.9716   18.4265    2.7282 N   0  0  0  0  0  0  0  0  0  0  0  0
    5.4083   17.8960    6.5216 N   0  0  0  0  0  0  0  0  0  0  0  0
    6.2573   18.9797    6.2490 C   0  0  0  0  0  0  0  0  0  0  0  0
    6.7949   19.1480    4.9516 N   0  0  0  0  0  0  0  0  0  0  0  0
    6.4672   18.2715    3.9778 C   0  0  0  0  0  0  0  0  0  0  0  0
    5.6134   17.1929    4.2302 C   0  0  0  0  0  0  0  0  0  0  0  0
    5.0729   16.9874    5.4983 C   0  0  0  0  0  0  0  0  0  0  0  0
  1  3  1  0  0  0  0
  1  5  1  0  0  0  0
  1  6  2  0  0  0  0
  2  5  2  0  0  0  0
  2 11  1  0  0  0  0
  2  4  1  0  0  0  0
  6 10  1  0  0  0  0
  7  8  2  0  0  0  0
  7 12  1  0  0  0  0
  8  9  1  0  0  0  0
  9 10  2  0  0  0  0
 10 11  1  0  0  0  0
 11 12  2  0  0  0  0
M  END
>  <CHROM.1>
6.01958290,17.52006801,3.72274026,-1.32402535,0.91131373,1.15196782

>  <Name>
ligand

>  <RI>
0

>  <Rbt.Current_Directory>
/home/itssahil/PROJECTS/Mol_Feturizer/New_Systems/rnas/4LX5

>  <Rbt.Executable>
rbdock ($Id: //depot/dev/client3/rdock/2013.1/src/exe/rbdock.cxx#4 $)

>  <Rbt.Library>
libRbt.so (2013.1, Build901 2013/11/27)

>  <Rbt.Parameter_File>
/export/apps/rDock/src/rDock_2013.1_src/data/scripts/dock_solv.prm

>  <Rbt.Receptor>
prm/pocket_docking_8.prm

>  <SCORE>
-14.1444

>  <SCORE.INTER>
-14.1444

>  <SCORE.INTER.CONST>
1

>  <SCORE.INTER.POLAR>
0

>  <SCORE.INTER.ROT>
0

>  <SCORE.INTER.SOLV>
18.8508

>  <SCORE.INTER.VDW>
-19.3132

>  <SCORE.INTER.norm>
-1.1787

>  <SCORE.INTRA>
0

>  <SCORE.INTRA.DIHEDRAL>
0

>  <SCORE.INTRA.DIHEDRAL.0>
0

>  <SCORE.INTRA.POLAR>
0

>  <SCORE.INTRA.POLAR.0>
0

>  <SCORE.INTRA.REPUL>
0

>  <SCORE.INTRA.REPUL.0>
0

>  <SCORE.INTRA.SOLV>
0

>  <SCORE.INTRA.SOLV.lig_0>
-48.1583

>  <SCORE.INTRA.VDW>
0

>  <SCORE.INTRA.VDW.0>
0

>  <SCORE.INTRA.norm>
0

>  <SCORE.RESTR>
0

>  <SCORE.RESTR.CAVITY>
0

>  <SCORE.RESTR.norm>
0

>  <SCORE.SYSTEM>
0

>  <SCORE.SYSTEM.CONST>
0

>  <SCORE.SYSTEM.DIHEDRAL>
0

>  <SCORE.SYSTEM.SOLV>
0

>  <SCORE.SYSTEM.norm>
0

>  <SCORE.heavy>
12

>  <SCORE.norm>
-1.1787

>  <RMSD>
0.423

$$$$
ligand
 OpenBabel11021811503D
libRbt.so/2013.1/901 2013/11/27
 12 13  0  0  0  0  0  0  0  0999 V2000
    6.6777   17.5491    1.7412 C   0  0  0  0  0  0  0  0  0  0  0  0
    5.3342   16.3085    3.1872 C   0  0  0  0  0  0  0  0  0  0  0  0
    7.1716   17.7326    0.5200 N   0  0  0  0  0  0  0  0  0  0  0  0
    4.5325   15.2743    3.4642 N   0  0  0  0  0  0  0  0  0  0  0  0
    5.8622   16.4966    1.9705 N   0  0  0  0  0  0  0  0  0  0  0  0
    6.9757   18.4293    2.7226 N   0  0  0  0  0  0  0  0  0  0  0  0
    5.4233   17.9039    6.5211 N   0  0  0  0  0  0  0  0  0  0  0  0
    6.2695   18.9886    6.2441 C   0  0  0  0  0  0  0  0  0  0  0  0
    6.8034   19.1552    4.9449 N   0  0  0  0  0  0  0  0  0  0  0  0
    6.4748   18.2760    3.9737 C   0  0  0  0  0  0  0  0  0  0  0  0
    5.6236   17.1964    4.2307 C   0  0  0  0  0  0  0  0  0  0  0  0
    5.0869   16.9925    5.5006 C   0  0  0  0  0  0  0  0  0  0  0  0
  1  3  1  0  0  0  0
  1  5  1  0  0  0  0
  1  6  2  0  0  0  0
  2  5  2  0  0  0  0
  2 11  1  0  0  0  0
  2  4  1  0  0  0  0
  6 10  1  0  0  0  0
  7  8  2  0  0  0  0
  7 12  1  0  0  0  0
  8  9  1  0  0  0  0
  9 10  2  0  0  0  0
 10 11  1  0  0  0  0
 11 12  2  0  0  0  0
M  END
>  <CHROM.1>
6.02793356,17.52321515,3.72147171,-1.32668774,0.91407578,1.15197910

>  <Name>
ligand

>  <RI>
0

>  <Rbt.Current_Directory>
/home/itssahil/PROJECTS/Mol_Feturizer/New_Systems/rnas/4LX5

>  <Rbt.Executable>
rbdock ($Id: //depot/dev/client3/rdock/2013.1/src/exe/rbdock.cxx#4 $)

>  <Rbt.Library>
libRbt.so (2013.1, Build901 2013/11/27)

>  <Rbt.Parameter_File>
/export/apps/rDock/src/rDock_2013.1_src/data/scripts/dock_solv.prm

>  <Rbt.Receptor>
prm/pocket_docking_5.prm

>  <SCORE>
-14.1106

>  <SCORE.INTER>
-14.1106

>  <SCORE.INTER.CONST>
1

>  <SCORE.INTER.POLAR>
0

>  <SCORE.INTER.ROT>
0

>  <SCORE.INTER.SOLV>
18.8841

>  <SCORE.INTER.VDW>
-19.3017

>  <SCORE.INTER.norm>
-1.17588

>  <SCORE.INTRA>
0

>  <SCORE.INTRA.DIHEDRAL>
0

>  <SCORE.INTRA.DIHEDRAL.0>
0

>  <SCORE.INTRA.POLAR>
0

>  <SCORE.INTRA.POLAR.0>
0

>  <SCORE.INTRA.REPUL>
0

>  <SCORE.INTRA.REPUL.0>
0

>  <SCORE.INTRA.SOLV>
0

>  <SCORE.INTRA.SOLV.lig_0>
-48.1583

>  <SCORE.INTRA.VDW>
0

>  <SCORE.INTRA.VDW.0>
0

>  <SCORE.INTRA.norm>
0

>  <SCORE.RESTR>
0

>  <SCORE.RESTR.CAVITY>
0

>  <SCORE.RESTR.norm>
0

>  <SCORE.SYSTEM>
0

>  <SCORE.SYSTEM.CONST>
0

>  <SCORE.SYSTEM.DIHEDRAL>
0

>  <SCORE.SYSTEM.SOLV>
0

>  <SCORE.SYSTEM.norm>
0

>  <SCORE.heavy>
12

>  <SCORE.norm>
-1.17588

>  <RMSD>
0.424

$$$$
ligand
 OpenBabel11021811503D
libRbt.so/2013.1/901 2013/11/27
 12 13  0  0  0  0  0  0  0  0999 V2000
    6.6736   17.5461    1.7404 C   0  0  0  0  0  0  0  0  0  0  0  0
    5.3337   16.3048    3.1892 C   0  0  0  0  0  0  0  0  0  0  0  0
    7.1656   17.7293    0.5184 N   0  0  0  0  0  0  0  0  0  0  0  0
    4.5339   15.2697    3.4681 N   0  0  0  0  0  0  0  0  0  0  0  0
    5.8599   16.4926    1.9716 N   0  0  0  0  0  0  0  0  0  0  0  0
    6.9716   18.4276    2.7206 N   0  0  0  0  0  0  0  0  0  0  0  0
    5.4250   17.9030    6.5216 N   0  0  0  0  0  0  0  0  0  0  0  0
    6.2693   18.9888    6.2426 C   0  0  0  0  0  0  0  0  0  0  0  0
    6.8012   19.1550    4.9425 N   0  0  0  0  0  0  0  0  0  0  0  0
    6.4726   18.2746    3.9726 C   0  0  0  0  0  0  0  0  0  0  0  0
    5.6233   17.1939    4.2315 C   0  0  0  0  0  0  0  0  0  0  0  0
    5.0885   16.9903    5.5023 C   0  0  0  0  0  0  0  0  0  0  0  0
  1  3  1  0  0  0  0
  1  5  1  0  0  0  0
  1  6  2  0  0  0  0
  2  5  2  0  0  0  0
  2 11  1  0  0  0  0
  2  4  1  0  0  0  0
  6 10  1  0  0  0  0
  7  8  2  0  0  0  0
  7 12  1  0  0  0  0
  8  9  1  0  0  0  0
  9 10  2  0  0  0  0
 10 11  1  0  0  0  0
 11 12  2  0  0  0  0
M  END
>  <CHROM.1>
6.02647918,17.52092697,3.72149168,-1.32769885,0.91591747,1.15195784

>  <Name>
ligand

>  <RI>
0

>  <Rbt.Current_Directory>
/home/itssahil/PROJECTS/Mol_Feturizer/New_Systems/rnas/4LX5

>  <Rbt.Executable>
rbdock ($Id: //depot/dev/client3/rdock/2013.1/src/exe/rbdock.cxx#4 $)

>  <Rbt.Library>
libRbt.so (2013.1, Build901 2013/11/27)

>  <Rbt.Parameter_File>
/export/apps/rDock/src/rDock_2013.1_src/data/scripts/dock_solv.prm

>  <Rbt.Receptor>
prm/pocket_docking_8.prm

>  <SCORE>
-14.1109

>  <SCORE.INTER>
-14.1109

>  <SCORE.INTER.CONST>
1

>  <SCORE.INTER.POLAR>
0

>  <SCORE.INTER.ROT>
0

>  <SCORE.INTER.SOLV>
18.8881

>  <SCORE.INTER.VDW>
-19.3033

>  <SCORE.INTER.norm>
-1.17591

>  <SCORE.INTRA>
0

>  <SCORE.INTRA.DIHEDRAL>
0

>  <SCORE.INTRA.DIHEDRAL.0>
0

>  <SCORE.INTRA.POLAR>
0

>  <SCORE.INTRA.POLAR.0>
0

>  <SCORE.INTRA.REPUL>
0

>  <SCORE.INTRA.REPUL.0>
0

>  <SCORE.INTRA.SOLV>
0

>  <SCORE.INTRA.SOLV.lig_0>
-48.1583

>  <SCORE.INTRA.VDW>
0

>  <SCORE.INTRA.VDW.0>
0

>  <SCORE.INTRA.norm>
0

>  <SCORE.RESTR>
0

>  <SCORE.RESTR.CAVITY>
0

>  <SCORE.RESTR.norm>
0

>  <SCORE.SYSTEM>
0

>  <SCORE.SYSTEM.CONST>
0

>  <SCORE.SYSTEM.DIHEDRAL>
0

>  <SCORE.SYSTEM.SOLV>
0

>  <SCORE.SYSTEM.norm>
0

>  <SCORE.heavy>
12

>  <SCORE.norm>
-1.17591

>  <RMSD>
0.424

$$$$
ligand
 OpenBabel11021811503D
libRbt.so/2013.1/901 2013/11/27
 12 13  0  0  0  0  0  0  0  0999 V2000
    6.6108   17.5350    1.7344 C   0  0  0  0  0  0  0  0  0  0  0  0
    5.3441   16.2362    3.1984 C   0  0  0  0  0  0  0  0  0  0  0  0
    7.0797   17.7397    0.5067 N   0  0  0  0  0  0  0  0  0  0  0  0
    4.5938   15.1670    3.4863 N   0  0  0  0  0  0  0  0  0  0  0  0
    5.8470   16.4469    1.9747 N   0  0  0  0  0  0  0  0  0  0  0  0
    6.8816   18.4287    2.7114 N   0  0  0  0  0  0  0  0  0  0  0  0
    5.4049   17.8369    6.5303 N   0  0  0  0  0  0  0  0  0  0  0  0
    6.1974   18.9586    6.2418 C   0  0  0  0  0  0  0  0  0  0  0  0
    6.7060   19.1480    4.9356 N   0  0  0  0  0  0  0  0  0  0  0  0
    6.4047   18.2540    3.9692 C   0  0  0  0  0  0  0  0  0  0  0  0
    5.6068   17.1372    4.2377 C   0  0  0  0  0  0  0  0  0  0  0  0
    5.0967   16.9103    5.5146 C   0  0  0  0  0  0  0  0  0  0  0  0
  1  3  1  0  0  0  0
  1  5  1  0  0  0  0
  1  6  2  0  0  0  0
  2  5  2  0  0  0  0
  2 11  1  0  0  0  0
  2  4  1  0  0  0  0
  6 10  1  0  0  0  0
  7  8  2  0  0  0  0
  7 12  1  0  0  0  0
  8  9  1  0  0  0  0
  9 10  2  0  0  0  0
 10 11  1  0  0  0  0
 11 12  2  0  0  0  0
M  END
>  <CHROM.1>
5.98912469,17.48152516,3.72304836,-1.31559154,0.96082008,1.14244882

>  <Name>
ligand

>  <RI>
0

>  <Rbt.Current_Directory>
/home/itssahil/PROJECTS/Mol_Feturizer/New_Systems/rnas/4LX5

>  <Rbt.Executable>
rbdock ($Id: //depot/dev/client3/rdock/2013.1/src/exe/rbdock.cxx#4 $)

>  <Rbt.Library>
libRbt.so (2013.1, Build901 2013/11/27)

>  <Rbt.Parameter_File>
/export/apps/rDock/src/rDock_2013.1_src/data/scripts/dock_solv.prm

>  <Rbt.Receptor>
prm/pocket_docking_8.prm

>  <SCORE>
-14.0345

>  <SCORE.INTER>
-14.0345

>  <SCORE.INTER.CONST>
1

>  <SCORE.INTER.POLAR>
0

>  <SCORE.INTER.ROT>
0

>  <SCORE.INTER.SOLV>
19.1535

>  <SCORE.INTER.VDW>
-19.3408

>  <SCORE.INTER.norm>
-1.16954

>  <SCORE.INTRA>
0

>  <SCORE.INTRA.DIHEDRAL>
0

>  <SCORE.INTRA.DIHEDRAL.0>
0

>  <SCORE.INTRA.POLAR>
0

>  <SCORE.INTRA.POLAR.0>
0

>  <SCORE.INTRA.REPUL>
0

>  <SCORE.INTRA.REPUL.0>
0

>  <SCORE.INTRA.SOLV>
0

>  <SCORE.INTRA.SOLV.lig_0>
-48.1583

>  <SCORE.INTRA.VDW>
0

>  <SCORE.INTRA.VDW.0>
0

>  <SCORE.INTRA.norm>
0

>  <SCORE.RESTR>
0

>  <SCORE.RESTR.CAVITY>
0

>  <SCORE.RESTR.norm>
0

>  <SCORE.SYSTEM>
0

>  <SCORE.SYSTEM.CONST>
0

>  <SCORE.SYSTEM.DIHEDRAL>
0

>  <SCORE.SYSTEM.SOLV>
0

>  <SCORE.SYSTEM.norm>
0

>  <SCORE.heavy>
12

>  <SCORE.norm>
-1.16954

>  <RMSD>
0.427

$$$$
ligand
 OpenBabel11021811503D
libRbt.so/2013.1/901 2013/11/27
 12 13  0  0  0  0  0  0  0  0999 V2000
    6.6804   17.5588    1.7510 C   0  0  0  0  0  0  0  0  0  0  0  0
    5.3392   16.3089    3.1911 C   0  0  0  0  0  0  0  0  0  0  0  0
    7.1757   17.7477    0.5312 N   0  0  0  0  0  0  0  0  0  0  0  0
    4.5411   15.2708    3.4638 N   0  0  0  0  0  0  0  0  0  0  0  0
    5.8687   16.5025    1.9759 N   0  0  0  0  0  0  0  0  0  0  0  0
    6.9732   18.4374    2.7354 N   0  0  0  0  0  0  0  0  0  0  0  0
    5.4161   17.8952    6.5296 N   0  0  0  0  0  0  0  0  0  0  0  0
    6.2586   18.9840    6.2572 C   0  0  0  0  0  0  0  0  0  0  0  0
    6.7941   19.1563    4.9594 N   0  0  0  0  0  0  0  0  0  0  0  0
    6.4707   18.2787    3.9852 C   0  0  0  0  0  0  0  0  0  0  0  0
    5.6233   17.1950    4.2376 C   0  0  0  0  0  0  0  0  0  0  0  0
    5.0851   16.9854    5.5059 C   0  0  0  0  0  0  0  0  0  0  0  0
  1  3  1  0  0  0  0
  1  5  1  0  0  0  0
  1  6  2  0  0  0  0
  2  5  2  0  0  0  0
  2 11  1  0  0  0  0
  2  4  1  0  0  0  0
  6 10  1  0  0  0  0
  7  8  2  0  0  0  0
  7 12  1  0  0  0  0
  8  9  1  0  0  0  0
  9 10  2  0  0  0  0
 10 11  1  0  0  0  0
 11 12  2  0  0  0  0
M  END
>  <CHROM.1>
6.02723249,17.52480585,3.73001166,-1.32138676,0.91692013,1.15059122

>  <Name>
ligand

>  <RI>
0

>  <Rbt.Current_Directory>
/home/itssahil/PROJECTS/Mol_Feturizer/New_Systems/rnas/4LX5

>  <Rbt.Executable>
rbdock ($Id: //depot/dev/client3/rdock/2013.1/src/exe/rbdock.cxx#4 $)

>  <Rbt.Library>
libRbt.so (2013.1, Build901 2013/11/27)

>  <Rbt.Parameter_File>
/export/apps/rDock/src/rDock_2013.1_src/data/scripts/dock_solv.prm

>  <Rbt.Receptor>
prm/blind_docking_40.prm

>  <SCORE>
-14.1112

>  <SCORE.INTER>
-14.1112

>  <SCORE.INTER.CONST>
1

>  <SCORE.INTER.POLAR>
0

>  <SCORE.INTER.ROT>
0

>  <SCORE.INTER.SOLV>
18.9298

>  <SCORE.INTER.VDW>
-19.3174

>  <SCORE.INTER.norm>
-1.17594

>  <SCORE.INTRA>
0

>  <SCORE.INTRA.DIHEDRAL>
0

>  <SCORE.INTRA.DIHEDRAL.0>
0

>  <SCORE.INTRA.POLAR>
0

>  <SCORE.INTRA.POLAR.0>
0

>  <SCORE.INTRA.REPUL>
0

>  <SCORE.INTRA.REPUL.0>
0

>  <SCORE.INTRA.SOLV>
0

>  <SCORE.INTRA.SOLV.lig_0>
-48.1583

>  <SCORE.INTRA.VDW>
0

>  <SCORE.INTRA.VDW.0>
0

>  <SCORE.INTRA.norm>
0

>  <SCORE.RESTR>
0

>  <SCORE.RESTR.CAVITY>
0

>  <SCORE.RESTR.norm>
0

>  <SCORE.SYSTEM>
0

>  <SCORE.SYSTEM.CONST>
0

>  <SCORE.SYSTEM.DIHEDRAL>
0

>  <SCORE.SYSTEM.SOLV>
0

>  <SCORE.SYSTEM.norm>
0

>  <SCORE.heavy>
12

>  <SCORE.norm>
-1.17594

>  <RMSD>
0.430

$$$$
ligand
 OpenBabel11021811503D
libRbt.so/2013.1/901 2013/11/27
 12 13  0  0  0  0  0  0  0  0999 V2000
    6.6819   17.5533    1.7510 C   0  0  0  0  0  0  0  0  0  0  0  0
    5.3438   16.3048    3.1951 C   0  0  0  0  0  0  0  0  0  0  0  0
    7.1762   17.7400    0.5304 N   0  0  0  0  0  0  0  0  0  0  0  0
    4.5477   15.2660    3.4709 N   0  0  0  0  0  0  0  0  0  0  0  0
    5.8722   16.4962    1.9790 N   0  0  0  0  0  0  0  0  0  0  0  0
    6.9739   18.4350    2.7329 N   0  0  0  0  0  0  0  0  0  0  0  0
    5.4201   17.8997    6.5295 N   0  0  0  0  0  0  0  0  0  0  0  0
    6.2605   18.9893    6.2537 C   0  0  0  0  0  0  0  0  0  0  0  0
    6.7949   19.1592    4.9552 N   0  0  0  0  0  0  0  0  0  0  0  0
    6.4724   18.2785    3.9835 C   0  0  0  0  0  0  0  0  0  0  0  0
    5.6271   17.1940    4.2391 C   0  0  0  0  0  0  0  0  0  0  0  0
    5.0900   16.9868    5.5084 C   0  0  0  0  0  0  0  0  0  0  0  0
  1  3  1  0  0  0  0
  1  5  1  0  0  0  0
  1  6  2  0  0  0  0
  2  5  2  0  0  0  0
  2 11  1  0  0  0  0
  2  4  1  0  0  0  0
  6 10  1  0  0  0  0
  7  8  2  0  0  0  0
  7 12  1  0  0  0  0
  8  9  1  0  0  0  0
  9 10  2  0  0  0  0
 10 11  1  0  0  0  0
 11 12  2  0  0  0  0
M  END
>  <CHROM.1>
6.03008202,17.52325141,3.73047016,-1.32118423,0.91875223,1.14788417

>  <Name>
ligand

>  <RI>
0

>  <Rbt.Current_Directory>
/home/itssahil/PROJECTS/Mol_Feturizer/New_Systems/rnas/4LX5

>  <Rbt.Executable>
rbdock ($Id: //depot/dev/client3/rdock/2013.1/src/exe/rbdock.cxx#4 $)

>  <Rbt.Library>
libRbt.so (2013.1, Build901 2013/11/27)

>  <Rbt.Parameter_File>
/export/apps/rDock/src/rDock_2013.1_src/data/scripts/dock_solv.prm

>  <Rbt.Receptor>
prm/pocket_docking_4.prm

>  <SCORE>
-14.1141

>  <SCORE.INTER>
-14.1141

>  <SCORE.INTER.CONST>
1

>  <SCORE.INTER.POLAR>
0

>  <SCORE.INTER.ROT>
0

>  <SCORE.INTER.SOLV>
18.95

>  <SCORE.INTER.VDW>
-19.326

>  <SCORE.INTER.norm>
-1.17617

>  <SCORE.INTRA>
0

>  <SCORE.INTRA.DIHEDRAL>
0

>  <SCORE.INTRA.DIHEDRAL.0>
0

>  <SCORE.INTRA.POLAR>
0

>  <SCORE.INTRA.POLAR.0>
0

>  <SCORE.INTRA.REPUL>
0

>  <SCORE.INTRA.REPUL.0>
0

>  <SCORE.INTRA.SOLV>
0

>  <SCORE.INTRA.SOLV.lig_0>
-48.1583

>  <SCORE.INTRA.VDW>
0

>  <SCORE.INTRA.VDW.0>
0

>  <SCORE.INTRA.norm>
0

>  <SCORE.RESTR>
0

>  <SCORE.RESTR.CAVITY>
0

>  <SCORE.RESTR.norm>
0

>  <SCORE.SYSTEM>
0

>  <SCORE.SYSTEM.CONST>
0

>  <SCORE.SYSTEM.DIHEDRAL>
0

>  <SCORE.SYSTEM.SOLV>
0

>  <SCORE.SYSTEM.norm>
0

>  <SCORE.heavy>
12

>  <SCORE.norm>
-1.17617

>  <RMSD>
0.431

$$$$
ligand
 OpenBabel11021811503D
libRbt.so/2013.1/901 2013/11/27
 12 13  0  0  0  0  0  0  0  0999 V2000
    6.6789   17.5520    1.7511 C   0  0  0  0  0  0  0  0  0  0  0  0
    5.3409   16.3056    3.1972 C   0  0  0  0  0  0  0  0  0  0  0  0
    7.1720   17.7375    0.5299 N   0  0  0  0  0  0  0  0  0  0  0  0
    4.5440   15.2677    3.4743 N   0  0  0  0  0  0  0  0  0  0  0  0
    5.8683   16.4958    1.9805 N   0  0  0  0  0  0  0  0  0  0  0  0
    6.9727   18.4338    2.7323 N   0  0  0  0  0  0  0  0  0  0  0  0
    5.4223   17.9020    6.5307 N   0  0  0  0  0  0  0  0  0  0  0  0
    6.2635   18.9906    6.2536 C   0  0  0  0  0  0  0  0  0  0  0  0
    6.7968   19.1593    4.9544 N   0  0  0  0  0  0  0  0  0  0  0  0
    6.4723   18.2785    3.9834 C   0  0  0  0  0  0  0  0  0  0  0  0
    5.6262   17.1950    4.2405 C   0  0  0  0  0  0  0  0  0  0  0  0
    5.0902   16.9889    5.5104 C   0  0  0  0  0  0  0  0  0  0  0  0
  1  3  1  0  0  0  0
  1  5  1  0  0  0  0
  1  6  2  0  0  0  0
  2  5  2  0  0  0  0
  2 11  1  0  0  0  0
  2  4  1  0  0  0  0
  6 10  1  0  0  0  0
  7  8  2  0  0  0  0
  7 12  1  0  0  0  0
  8  9  1  0  0  0  0
  9 10  2  0  0  0  0
 10 11  1  0  0  0  0
 11 12  2  0  0  0  0
M  END
>  <CHROM.1>
6.02901507,17.52354790,3.73126383,-1.32340621,0.91824684,1.14916650

>  <Name>
ligand

>  <RI>
0

>  <Rbt.Current_Directory>
/home/itssahil/PROJECTS/Mol_Feturizer/New_Systems/rnas/4LX5

>  <Rbt.Executable>
rbdock ($Id: //depot/dev/client3/rdock/2013.1/src/exe/rbdock.cxx#4 $)

>  <Rbt.Library>
libRbt.so (2013.1, Build901 2013/11/27)

>  <Rbt.Parameter_File>
/export/apps/rDock/src/rDock_2013.1_src/data/scripts/dock_solv.prm

>  <Rbt.Receptor>
prm/pocket_docking_4.prm

>  <SCORE>
-14.1145

>  <SCORE.INTER>
-14.1145

>  <SCORE.INTER.CONST>
1

>  <SCORE.INTER.POLAR>
0

>  <SCORE.INTER.ROT>
0

>  <SCORE.INTER.SOLV>
18.9315

>  <SCORE.INTER.VDW>
-19.3202

>  <SCORE.INTER.norm>
-1.17621

>  <SCORE.INTRA>
0

>  <SCORE.INTRA.DIHEDRAL>
0

>  <SCORE.INTRA.DIHEDRAL.0>
0

>  <SCORE.INTRA.POLAR>
0

>  <SCORE.INTRA.POLAR.0>
0

>  <SCORE.INTRA.REPUL>
0

>  <SCORE.INTRA.REPUL.0>
0

>  <SCORE.INTRA.SOLV>
0

>  <SCORE.INTRA.SOLV.lig_0>
-48.1583

>  <SCORE.INTRA.VDW>
0

>  <SCORE.INTRA.VDW.0>
0

>  <SCORE.INTRA.norm>
0

>  <SCORE.RESTR>
0

>  <SCORE.RESTR.CAVITY>
0

>  <SCORE.RESTR.norm>
0

>  <SCORE.SYSTEM>
0

>  <SCORE.SYSTEM.CONST>
0

>  <SCORE.SYSTEM.DIHEDRAL>
0

>  <SCORE.SYSTEM.SOLV>
0

>  <SCORE.SYSTEM.norm>
0

>  <SCORE.heavy>
12

>  <SCORE.norm>
-1.17621

>  <RMSD>
0.432

$$$$
ligand
 OpenBabel11021811503D
libRbt.so/2013.1/901 2013/11/27
 12 13  0  0  0  0  0  0  0  0999 V2000
    6.6593   17.5509    1.7393 C   0  0  0  0  0  0  0  0  0  0  0  0
    5.3018   16.3317    3.1904 C   0  0  0  0  0  0  0  0  0  0  0  0
    7.1494   17.7281    0.5156 N   0  0  0  0  0  0  0  0  0  0  0  0
    4.4831   15.3115    3.4698 N   0  0  0  0  0  0  0  0  0  0  0  0
    5.8262   16.5129    1.9710 N   0  0  0  0  0  0  0  0  0  0  0  0
    6.9788   18.4234    2.7207 N   0  0  0  0  0  0  0  0  0  0  0  0
    5.4389   17.9177    6.5270 N   0  0  0  0  0  0  0  0  0  0  0  0
    6.3031   18.9875    6.2474 C   0  0  0  0  0  0  0  0  0  0  0  0
    6.8325   19.1473    4.9455 N   0  0  0  0  0  0  0  0  0  0  0  0
    6.4824   18.2764    3.9745 C   0  0  0  0  0  0  0  0  0  0  0  0
    5.6133   17.2118    4.2340 C   0  0  0  0  0  0  0  0  0  0  0  0
    5.0802   17.0148    5.5065 C   0  0  0  0  0  0  0  0  0  0  0  0
  1  3  1  0  0  0  0
  1  5  1  0  0  0  0
  1  6  2  0  0  0  0
  2  5  2  0  0  0  0
  2 11  1  0  0  0  0
  2  4  1  0  0  0  0
  6 10  1  0  0  0  0
  7  8  2  0  0  0  0
  7 12  1  0  0  0  0
  8  9  1  0  0  0  0
  9 10  2  0  0  0  0
 10 11  1  0  0  0  0
 11 12  2  0  0  0  0
M  END
>  <CHROM.1>
6.02052523,17.53237392,3.72316062,-1.34695701,0.89973868,1.17012236

>  <Name>
ligand

>  <RI>
0

>  <Rbt.Current_Directory>
/home/itssahil/PROJECTS/Mol_Feturizer/New_Systems/rnas/4LX5

>  <Rbt.Executable>
rbdock ($Id: //depot/dev/client3/rdock/2013.1/src/exe/rbdock.cxx#4 $)

>  <Rbt.Library>
libRbt.so (2013.1, Build901 2013/11/27)

>  <Rbt.Parameter_File>
/export/apps/rDock/src/rDock_2013.1_src/data/scripts/dock_solv.prm

>  <Rbt.Receptor>
prm/blind_docking_100.prm

>  <SCORE>
-14.0598

>  <SCORE.INTER>
-14.0598

>  <SCORE.INTER.CONST>
1

>  <SCORE.INTER.POLAR>
0

>  <SCORE.INTER.ROT>
0

>  <SCORE.INTER.SOLV>
18.6529

>  <SCORE.INTER.VDW>
-19.1908

>  <SCORE.INTER.norm>
-1.17165

>  <SCORE.INTRA>
0

>  <SCORE.INTRA.DIHEDRAL>
0

>  <SCORE.INTRA.DIHEDRAL.0>
0

>  <SCORE.INTRA.POLAR>
0

>  <SCORE.INTRA.POLAR.0>
0

>  <SCORE.INTRA.REPUL>
0

>  <SCORE.INTRA.REPUL.0>
0

>  <SCORE.INTRA.SOLV>
0

>  <SCORE.INTRA.SOLV.lig_0>
-48.1583

>  <SCORE.INTRA.VDW>
0

>  <SCORE.INTRA.VDW.0>
0

>  <SCORE.INTRA.norm>
0

>  <SCORE.RESTR>
0

>  <SCORE.RESTR.CAVITY>
0

>  <SCORE.RESTR.norm>
0

>  <SCORE.SYSTEM>
0

>  <SCORE.SYSTEM.CONST>
0

>  <SCORE.SYSTEM.DIHEDRAL>
0

>  <SCORE.SYSTEM.SOLV>
0

>  <SCORE.SYSTEM.norm>
0

>  <SCORE.heavy>
12

>  <SCORE.norm>
-1.17165

>  <RMSD>
0.433

$$$$
ligand
 OpenBabel11021811503D
libRbt.so/2013.1/901 2013/11/27
 12 13  0  0  0  0  0  0  0  0999 V2000
    6.6875   17.5735    1.7506 C   0  0  0  0  0  0  0  0  0  0  0  0
    5.3511   16.3195    3.1915 C   0  0  0  0  0  0  0  0  0  0  0  0
    7.1829   17.7630    0.5310 N   0  0  0  0  0  0  0  0  0  0  0  0
    4.5577   15.2779    3.4651 N   0  0  0  0  0  0  0  0  0  0  0  0
    5.8806   16.5137    1.9764 N   0  0  0  0  0  0  0  0  0  0  0  0
    6.9753   18.4550    2.7339 N   0  0  0  0  0  0  0  0  0  0  0  0
    5.4178   17.9110    6.5277 N   0  0  0  0  0  0  0  0  0  0  0  0
    6.2553   19.0034    6.2543 C   0  0  0  0  0  0  0  0  0  0  0  0
    6.7911   19.1763    4.9567 N   0  0  0  0  0  0  0  0  0  0  0  0
    6.4726   18.2957    3.9836 C   0  0  0  0  0  0  0  0  0  0  0  0
    5.6302   17.2084    4.2369 C   0  0  0  0  0  0  0  0  0  0  0  0
    5.0919   16.9981    5.5051 C   0  0  0  0  0  0  0  0  0  0  0  0
  1  3  1  0  0  0  0
  1  5  1  0  0  0  0
  1  6  2  0  0  0  0
  2  5  2  0  0  0  0
  2 11  1  0  0  0  0
  2  4  1  0  0  0  0
  6 10  1  0  0  0  0
  7  8  2  0  0  0  0
  7 12  1  0  0  0  0
  8  9  1  0  0  0  0
  9 10  2  0  0  0  0
 10 11  1  0  0  0  0
 11 12  2  0  0  0  0
M  END
>  <CHROM.1>
6.03291428,17.53936930,3.72914048,-1.31697894,0.92092592,1.14560488

>  <Name>
ligand

>  <RI>
0

>  <Rbt.Current_Directory>
/home/itssahil/PROJECTS/Mol_Feturizer/New_Systems/rnas/4LX5

>  <Rbt.Executable>
rbdock ($Id: //depot/dev/client3/rdock/2013.1/src/exe/rbdock.cxx#4 $)

>  <Rbt.Library>
libRbt.so (2013.1, Build901 2013/11/27)

>  <Rbt.Parameter_File>
/export/apps/rDock/src/rDock_2013.1_src/data/scripts/dock_solv.prm

>  <Rbt.Receptor>
prm/pocket_docking_5.prm

>  <SCORE>
-14.0772

>  <SCORE.INTER>
-14.0772

>  <SCORE.INTER.CONST>
1

>  <SCORE.INTER.POLAR>
0

>  <SCORE.INTER.ROT>
0

>  <SCORE.INTER.SOLV>
18.99

>  <SCORE.INTER.VDW>
-19.3148

>  <SCORE.INTER.norm>
-1.1731

>  <SCORE.INTRA>
0

>  <SCORE.INTRA.DIHEDRAL>
0

>  <SCORE.INTRA.DIHEDRAL.0>
0

>  <SCORE.INTRA.POLAR>
0

>  <SCORE.INTRA.POLAR.0>
0

>  <SCORE.INTRA.REPUL>
0

>  <SCORE.INTRA.REPUL.0>
0

>  <SCORE.INTRA.SOLV>
0

>  <SCORE.INTRA.SOLV.lig_0>
-48.1583

>  <SCORE.INTRA.VDW>
0

>  <SCORE.INTRA.VDW.0>
0

>  <SCORE.INTRA.norm>
0

>  <SCORE.RESTR>
0

>  <SCORE.RESTR.CAVITY>
0

>  <SCORE.RESTR.norm>
0

>  <SCORE.SYSTEM>
0

>  <SCORE.SYSTEM.CONST>
0

>  <SCORE.SYSTEM.DIHEDRAL>
0

>  <SCORE.SYSTEM.SOLV>
0

>  <SCORE.SYSTEM.norm>
0

>  <SCORE.heavy>
12

>  <SCORE.norm>
-1.1731

>  <RMSD>
0.434

$$$$
ligand
 OpenBabel11021811503D
libRbt.so/2013.1/901 2013/11/27
 12 13  0  0  0  0  0  0  0  0999 V2000
    6.6853   17.5443    1.7548 C   0  0  0  0  0  0  0  0  0  0  0  0
    5.3619   16.2890    3.2066 C   0  0  0  0  0  0  0  0  0  0  0  0
    7.1764   17.7299    0.5328 N   0  0  0  0  0  0  0  0  0  0  0  0
    4.5773   15.2431    3.4886 N   0  0  0  0  0  0  0  0  0  0  0  0
    5.8872   16.4797    1.9891 N   0  0  0  0  0  0  0  0  0  0  0  0
    6.9685   18.4342    2.7318 N   0  0  0  0  0  0  0  0  0  0  0  0
    5.4238   17.9020    6.5326 N   0  0  0  0  0  0  0  0  0  0  0  0
    6.2521   18.9992    6.2504 C   0  0  0  0  0  0  0  0  0  0  0  0
    6.7836   19.1681    4.9505 N   0  0  0  0  0  0  0  0  0  0  0  0
    6.4698   18.2789    3.9837 C   0  0  0  0  0  0  0  0  0  0  0  0
    5.6364   17.1867    4.2457 C   0  0  0  0  0  0  0  0  0  0  0  0
    5.1027   16.9802    5.5165 C   0  0  0  0  0  0  0  0  0  0  0  0
  1  3  1  0  0  0  0
  1  5  1  0  0  0  0
  1  6  2  0  0  0  0
  2  5  2  0  0  0  0
  2 11  1  0  0  0  0
  2  4  1  0  0  0  0
  6 10  1  0  0  0  0
  7  8  2  0  0  0  0
  7 12  1  0  0  0  0
  8  9  1  0  0  0  0
  9 10  2  0  0  0  0
 10 11  1  0  0  0  0
 11 12  2  0  0  0  0
M  END
>  <CHROM.1>
6.03545143,17.51756405,3.73499871,-1.31503644,0.92896313,1.13775671

>  <Name>
ligand

>  <RI>
0

>  <Rbt.Current_Directory>
/home/itssahil/PROJECTS/Mol_Feturizer/New_Systems/rnas/4LX5

>  <Rbt.Executable>
rbdock ($Id: //depot/dev/client3/rdock/2013.1/src/exe/rbdock.cxx#4 $)

>  <Rbt.Library>
libRbt.so (2013.1, Build901 2013/11/27)

>  <Rbt.Parameter_File>
/export/apps/rDock/src/rDock_2013.1_src/data/scripts/dock_solv.prm

>  <Rbt.Receptor>
prm/blind_docking_100.prm

>  <SCORE>
-14.1177

>  <SCORE.INTER>
-14.1177

>  <SCORE.INTER.CONST>
1

>  <SCORE.INTER.POLAR>
0

>  <SCORE.INTER.ROT>
0

>  <SCORE.INTER.SOLV>
19.0683

>  <SCORE.INTER.VDW>
-19.3679

>  <SCORE.INTER.norm>
-1.17647

>  <SCORE.INTRA>
0

>  <SCORE.INTRA.DIHEDRAL>
0

>  <SCORE.INTRA.DIHEDRAL.0>
0

>  <SCORE.INTRA.POLAR>
0

>  <SCORE.INTRA.POLAR.0>
0

>  <SCORE.INTRA.REPUL>
0

>  <SCORE.INTRA.REPUL.0>
0

>  <SCORE.INTRA.SOLV>
0

>  <SCORE.INTRA.SOLV.lig_0>
-48.1583

>  <SCORE.INTRA.VDW>
0

>  <SCORE.INTRA.VDW.0>
0

>  <SCORE.INTRA.norm>
0

>  <SCORE.RESTR>
0

>  <SCORE.RESTR.CAVITY>
0

>  <SCORE.RESTR.norm>
0

>  <SCORE.SYSTEM>
0

>  <SCORE.SYSTEM.CONST>
0

>  <SCORE.SYSTEM.DIHEDRAL>
0

>  <SCORE.SYSTEM.SOLV>
0

>  <SCORE.SYSTEM.norm>
0

>  <SCORE.heavy>
12

>  <SCORE.norm>
-1.17647

>  <RMSD>
0.435

$$$$
ligand
 OpenBabel11021811503D
libRbt.so/2013.1/901 2013/11/27
 12 13  0  0  0  0  0  0  0  0999 V2000
    6.6816   17.5498    1.7546 C   0  0  0  0  0  0  0  0  0  0  0  0
    5.3441   16.3034    3.2011 C   0  0  0  0  0  0  0  0  0  0  0  0
    7.1757   17.7343    0.5337 N   0  0  0  0  0  0  0  0  0  0  0  0
    4.5484   15.2647    3.4789 N   0  0  0  0  0  0  0  0  0  0  0  0
    5.8723   16.4927    1.9847 N   0  0  0  0  0  0  0  0  0  0  0  0
    6.9731   18.4334    2.7348 N   0  0  0  0  0  0  0  0  0  0  0  0
    5.4197   17.9046    6.5325 N   0  0  0  0  0  0  0  0  0  0  0  0
    6.2597   18.9941    6.2546 C   0  0  0  0  0  0  0  0  0  0  0  0
    6.7940   19.1618    4.9558 N   0  0  0  0  0  0  0  0  0  0  0  0
    6.4718   18.2791    3.9857 C   0  0  0  0  0  0  0  0  0  0  0  0
    5.6270   17.1947    4.2435 C   0  0  0  0  0  0  0  0  0  0  0  0
    5.0900   16.9896    5.5131 C   0  0  0  0  0  0  0  0  0  0  0  0
  1  3  1  0  0  0  0
  1  5  1  0  0  0  0
  1  6  2  0  0  0  0
  2  5  2  0  0  0  0
  2 11  1  0  0  0  0
  2  4  1  0  0  0  0
  6 10  1  0  0  0  0
  7  8  2  0  0  0  0
  7 12  1  0  0  0  0
  8  9  1  0  0  0  0
  9 10  2  0  0  0  0
 10 11  1  0  0  0  0
 11 12  2  0  0  0  0
M  END
>  <CHROM.1>
6.02982314,17.52314939,3.73415989,-1.32091201,0.91919054,1.14577765

>  <Name>
ligand

>  <RI>
0

>  <Rbt.Current_Directory>
/home/itssahil/PROJECTS/Mol_Feturizer/New_Systems/rnas/4LX5

>  <Rbt.Executable>
rbdock ($Id: //depot/dev/client3/rdock/2013.1/src/exe/rbdock.cxx#4 $)

>  <Rbt.Library>
libRbt.so (2013.1, Build901 2013/11/27)

>  <Rbt.Parameter_File>
/export/apps/rDock/src/rDock_2013.1_src/data/scripts/dock_solv.prm

>  <Rbt.Receptor>
prm/pocket_docking_5.prm

>  <SCORE>
-14.1143

>  <SCORE.INTER>
-14.1143

>  <SCORE.INTER.CONST>
1

>  <SCORE.INTER.POLAR>
0

>  <SCORE.INTER.ROT>
0

>  <SCORE.INTER.SOLV>
18.9519

>  <SCORE.INTER.VDW>
-19.3269

>  <SCORE.INTER.norm>
-1.17619

>  <SCORE.INTRA>
0

>  <SCORE.INTRA.DIHEDRAL>
0

>  <SCORE.INTRA.DIHEDRAL.0>
0

>  <SCORE.INTRA.POLAR>
0

>  <SCORE.INTRA.POLAR.0>
0

>  <SCORE.INTRA.REPUL>
0

>  <SCORE.INTRA.REPUL.0>
0

>  <SCORE.INTRA.SOLV>
0

>  <SCORE.INTRA.SOLV.lig_0>
-48.1583

>  <SCORE.INTRA.VDW>
0

>  <SCORE.INTRA.VDW.0>
0

>  <SCORE.INTRA.norm>
0

>  <SCORE.RESTR>
0

>  <SCORE.RESTR.CAVITY>
0

>  <SCORE.RESTR.norm>
0

>  <SCORE.SYSTEM>
0

>  <SCORE.SYSTEM.CONST>
0

>  <SCORE.SYSTEM.DIHEDRAL>
0

>  <SCORE.SYSTEM.SOLV>
0

>  <SCORE.SYSTEM.norm>
0

>  <SCORE.heavy>
12

>  <SCORE.norm>
-1.17619

>  <RMSD>
0.435

$$$$
ligand
 OpenBabel11021811503D
libRbt.so/2013.1/901 2013/11/27
 12 13  0  0  0  0  0  0  0  0999 V2000
    6.7067   17.5577    1.7640 C   0  0  0  0  0  0  0  0  0  0  0  0
    5.3640   16.3068    3.2019 C   0  0  0  0  0  0  0  0  0  0  0  0
    7.2068   17.7449    0.5459 N   0  0  0  0  0  0  0  0  0  0  0  0
    4.5688   15.2664    3.4740 N   0  0  0  0  0  0  0  0  0  0  0  0
    5.8981   16.4989    1.9884 N   0  0  0  0  0  0  0  0  0  0  0  0
    6.9917   18.4403    2.7471 N   0  0  0  0  0  0  0  0  0  0  0  0
    5.4198   17.9031    6.5360 N   0  0  0  0  0  0  0  0  0  0  0  0
    6.2593   18.9944    6.2641 C   0  0  0  0  0  0  0  0  0  0  0  0
    6.7999   19.1650    4.9682 N   0  0  0  0  0  0  0  0  0  0  0  0
    6.4842   18.2833    3.9952 C   0  0  0  0  0  0  0  0  0  0  0  0
    5.6400   17.1970    4.2470 C   0  0  0  0  0  0  0  0  0  0  0  0
    5.0970   16.9891    5.5135 C   0  0  0  0  0  0  0  0  0  0  0  0
  1  3  1  0  0  0  0
  1  5  1  0  0  0  0
  1  6  2  0  0  0  0
  2  5  2  0  0  0  0
  2 11  1  0  0  0  0
  2  4  1  0  0  0  0
  6 10  1  0  0  0  0
  7  8  2  0  0  0  0
  7 12  1  0  0  0  0
  8  9  1  0  0  0  0
  9 10  2  0  0  0  0
 10 11  1  0  0  0  0
 11 12  2  0  0  0  0
M  END
>  <CHROM.1>
6.04489265,17.52693942,3.74021811,-1.31205367,0.91864752,1.14024271

>  <Name>
ligand

>  <RI>
0

>  <Rbt.Current_Directory>
/home/itssahil/PROJECTS/Mol_Feturizer/New_Systems/rnas/4LX5

>  <Rbt.Executable>
rbdock ($Id: //depot/dev/client3/rdock/2013.1/src/exe/rbdock.cxx#4 $)

>  <Rbt.Library>
libRbt.so (2013.1, Build901 2013/11/27)

>  <Rbt.Parameter_File>
/export/apps/rDock/src/rDock_2013.1_src/data/scripts/dock_solv.prm

>  <Rbt.Receptor>
prm/pocket_docking_4.prm

>  <SCORE>
-14.1109

>  <SCORE.INTER>
-14.1109

>  <SCORE.INTER.CONST>
1

>  <SCORE.INTER.POLAR>
0

>  <SCORE.INTER.ROT>
0

>  <SCORE.INTER.SOLV>
19.0402

>  <SCORE.INTER.VDW>
-19.354

>  <SCORE.INTER.norm>
-1.17591

>  <SCORE.INTRA>
0

>  <SCORE.INTRA.DIHEDRAL>
0

>  <SCORE.INTRA.DIHEDRAL.0>
0

>  <SCORE.INTRA.POLAR>
0

>  <SCORE.INTRA.POLAR.0>
0

>  <SCORE.INTRA.REPUL>
0

>  <SCORE.INTRA.REPUL.0>
0

>  <SCORE.INTRA.SOLV>
0

>  <SCORE.INTRA.SOLV.lig_0>
-48.1583

>  <SCORE.INTRA.VDW>
0

>  <SCORE.INTRA.VDW.0>
0

>  <SCORE.INTRA.norm>
0

>  <SCORE.RESTR>
0

>  <SCORE.RESTR.CAVITY>
0

>  <SCORE.RESTR.norm>
0

>  <SCORE.SYSTEM>
0

>  <SCORE.SYSTEM.CONST>
0

>  <SCORE.SYSTEM.DIHEDRAL>
0

>  <SCORE.SYSTEM.SOLV>
0

>  <SCORE.SYSTEM.norm>
0

>  <SCORE.heavy>
12

>  <SCORE.norm>
-1.17591

>  <RMSD>
0.437

$$$$
ligand
 OpenBabel11021811503D
libRbt.so/2013.1/901 2013/11/27
 12 13  0  0  0  0  0  0  0  0999 V2000
    6.6844   17.5484    1.7538 C   0  0  0  0  0  0  0  0  0  0  0  0
    5.3499   16.3049    3.2055 C   0  0  0  0  0  0  0  0  0  0  0  0
    7.1749   17.7315    0.5312 N   0  0  0  0  0  0  0  0  0  0  0  0
    4.5538   15.2674    3.4866 N   0  0  0  0  0  0  0  0  0  0  0  0
    5.8746   16.4926    1.9873 N   0  0  0  0  0  0  0  0  0  0  0  0
    6.9802   18.4324    2.7325 N   0  0  0  0  0  0  0  0  0  0  0  0
    5.4381   17.9085    6.5354 N   0  0  0  0  0  0  0  0  0  0  0  0
    6.2785   18.9967    6.2541 C   0  0  0  0  0  0  0  0  0  0  0  0
    6.8089   19.1627    4.9534 N   0  0  0  0  0  0  0  0  0  0  0  0
    6.4826   18.2797    3.9850 C   0  0  0  0  0  0  0  0  0  0  0  0
    5.6372   17.1966    4.2463 C   0  0  0  0  0  0  0  0  0  0  0  0
    5.1040   16.9931    5.5178 C   0  0  0  0  0  0  0  0  0  0  0  0
  1  3  1  0  0  0  0
  1  5  1  0  0  0  0
  1  6  2  0  0  0  0
  2  5  2  0  0  0  0
  2 11  1  0  0  0  0
  2  4  1  0  0  0  0
  6 10  1  0  0  0  0
  7  8  2  0  0  0  0
  7 12  1  0  0  0  0
  8  9  1  0  0  0  0
  9 10  2  0  0  0  0
 10 11  1  0  0  0  0
 11 12  2  0  0  0  0
M  END
>  <CHROM.1>
6.03887381,17.52414223,3.73546685,-1.32651050,0.91932797,1.14947299

>  <Name>
ligand

>  <RI>
0

>  <Rbt.Current_Directory>
/home/itssahil/PROJECTS/Mol_Feturizer/New_Systems/rnas/4LX5

>  <Rbt.Executable>
rbdock ($Id: //depot/dev/client3/rdock/2013.1/src/exe/rbdock.cxx#4 $)

>  <Rbt.Library>
libRbt.so (2013.1, Build901 2013/11/27)

>  <Rbt.Parameter_File>
/export/apps/rDock/src/rDock_2013.1_src/data/scripts/dock_solv.prm

>  <Rbt.Receptor>
prm/pocket_docking_4.prm

>  <SCORE>
-14.1161

>  <SCORE.INTER>
-14.1161

>  <SCORE.INTER.CONST>
1

>  <SCORE.INTER.POLAR>
0

>  <SCORE.INTER.ROT>
0

>  <SCORE.INTER.SOLV>
18.9575

>  <SCORE.INTER.VDW>
-19.3299

>  <SCORE.INTER.norm>
-1.17634

>  <SCORE.INTRA>
0

>  <SCORE.INTRA.DIHEDRAL>
0

>  <SCORE.INTRA.DIHEDRAL.0>
0

>  <SCORE.INTRA.POLAR>
0

>  <SCORE.INTRA.POLAR.0>
0

>  <SCORE.INTRA.REPUL>
0

>  <SCORE.INTRA.REPUL.0>
0

>  <SCORE.INTRA.SOLV>
0

>  <SCORE.INTRA.SOLV.lig_0>
-48.1583

>  <SCORE.INTRA.VDW>
0

>  <SCORE.INTRA.VDW.0>
0

>  <SCORE.INTRA.norm>
0

>  <SCORE.RESTR>
0

>  <SCORE.RESTR.CAVITY>
0

>  <SCORE.RESTR.norm>
0

>  <SCORE.SYSTEM>
0

>  <SCORE.SYSTEM.CONST>
0

>  <SCORE.SYSTEM.DIHEDRAL>
0

>  <SCORE.SYSTEM.SOLV>
0

>  <SCORE.SYSTEM.norm>
0

>  <SCORE.heavy>
12

>  <SCORE.norm>
-1.17634

>  <RMSD>
0.437

$$$$
ligand
 OpenBabel11021811503D
libRbt.so/2013.1/901 2013/11/27
 12 13  0  0  0  0  0  0  0  0999 V2000
    6.6844   17.5523    1.7579 C   0  0  0  0  0  0  0  0  0  0  0  0
    5.3450   16.3070    3.2036 C   0  0  0  0  0  0  0  0  0  0  0  0
    7.1787   17.7369    0.5371 N   0  0  0  0  0  0  0  0  0  0  0  0
    4.5479   15.2693    3.4808 N   0  0  0  0  0  0  0  0  0  0  0  0
    5.8735   16.4963    1.9873 N   0  0  0  0  0  0  0  0  0  0  0  0
    6.9772   18.4349    2.7387 N   0  0  0  0  0  0  0  0  0  0  0  0
    5.4231   17.9059    6.5360 N   0  0  0  0  0  0  0  0  0  0  0  0
    6.2646   18.9943    6.2589 C   0  0  0  0  0  0  0  0  0  0  0  0
    6.7991   19.1621    4.9601 N   0  0  0  0  0  0  0  0  0  0  0  0
    6.4756   18.2805    3.9895 C   0  0  0  0  0  0  0  0  0  0  0  0
    5.6292   17.1972    4.2465 C   0  0  0  0  0  0  0  0  0  0  0  0
    5.0920   16.9920    5.5160 C   0  0  0  0  0  0  0  0  0  0  0  0
  1  3  1  0  0  0  0
  1  5  1  0  0  0  0
  1  6  2  0  0  0  0
  2  5  2  0  0  0  0
  2 11  1  0  0  0  0
  2  4  1  0  0  0  0
  6 10  1  0  0  0  0
  7  8  2  0  0  0  0
  7 12  1  0  0  0  0
  8  9  1  0  0  0  0
  9 10  2  0  0  0  0
 10 11  1  0  0  0  0
 11 12  2  0  0  0  0
M  END
>  <CHROM.1>
6.03257961,17.52535089,3.73743756,-1.32193398,0.91784984,1.14722818

>  <Name>
ligand

>  <RI>
0

>  <Rbt.Current_Directory>
/home/itssahil/PROJECTS/Mol_Feturizer/New_Systems/rnas/4LX5

>  <Rbt.Executable>
rbdock ($Id: //depot/dev/client3/rdock/2013.1/src/exe/rbdock.cxx#4 $)

>  <Rbt.Library>
libRbt.so (2013.1, Build901 2013/11/27)

>  <Rbt.Parameter_File>
/export/apps/rDock/src/rDock_2013.1_src/data/scripts/dock_solv.prm

>  <Rbt.Receptor>
prm/pocket_docking_4.prm

>  <SCORE>
-14.1149

>  <SCORE.INTER>
-14.1149

>  <SCORE.INTER.CONST>
1

>  <SCORE.INTER.POLAR>
0

>  <SCORE.INTER.ROT>
0

>  <SCORE.INTER.SOLV>
18.9461

>  <SCORE.INTER.VDW>
-19.3253

>  <SCORE.INTER.norm>
-1.17624

>  <SCORE.INTRA>
0

>  <SCORE.INTRA.DIHEDRAL>
0

>  <SCORE.INTRA.DIHEDRAL.0>
0

>  <SCORE.INTRA.POLAR>
0

>  <SCORE.INTRA.POLAR.0>
0

>  <SCORE.INTRA.REPUL>
0

>  <SCORE.INTRA.REPUL.0>
0

>  <SCORE.INTRA.SOLV>
0

>  <SCORE.INTRA.SOLV.lig_0>
-48.1583

>  <SCORE.INTRA.VDW>
0

>  <SCORE.INTRA.VDW.0>
0

>  <SCORE.INTRA.norm>
0

>  <SCORE.RESTR>
0

>  <SCORE.RESTR.CAVITY>
0

>  <SCORE.RESTR.norm>
0

>  <SCORE.SYSTEM>
0

>  <SCORE.SYSTEM.CONST>
0

>  <SCORE.SYSTEM.DIHEDRAL>
0

>  <SCORE.SYSTEM.SOLV>
0

>  <SCORE.SYSTEM.norm>
0

>  <SCORE.heavy>
12

>  <SCORE.norm>
-1.17624

>  <RMSD>
0.438

$$$$
ligand
 OpenBabel11021811503D
libRbt.so/2013.1/901 2013/11/27
 12 13  0  0  0  0  0  0  0  0999 V2000
    6.6889   17.5391    1.7581 C   0  0  0  0  0  0  0  0  0  0  0  0
    5.3721   16.2823    3.2146 C   0  0  0  0  0  0  0  0  0  0  0  0
    7.1784   17.7232    0.5352 N   0  0  0  0  0  0  0  0  0  0  0  0
    4.5923   15.2337    3.5002 N   0  0  0  0  0  0  0  0  0  0  0  0
    5.8957   16.4717    1.9961 N   0  0  0  0  0  0  0  0  0  0  0  0
    6.9688   18.4332    2.7323 N   0  0  0  0  0  0  0  0  0  0  0  0
    5.4290   17.9055    6.5356 N   0  0  0  0  0  0  0  0  0  0  0  0
    6.2523   19.0055    6.2496 C   0  0  0  0  0  0  0  0  0  0  0  0
    6.7821   19.1729    4.9489 N   0  0  0  0  0  0  0  0  0  0  0  0
    6.4716   18.2794    3.9849 C   0  0  0  0  0  0  0  0  0  0  0  0
    5.6433   17.1843    4.2508 C   0  0  0  0  0  0  0  0  0  0  0  0
    5.1114   16.9793    5.5226 C   0  0  0  0  0  0  0  0  0  0  0  0
  1  3  1  0  0  0  0
  1  5  1  0  0  0  0
  1  6  2  0  0  0  0
  2  5  2  0  0  0  0
  2 11  1  0  0  0  0
  2  4  1  0  0  0  0
  6 10  1  0  0  0  0
  7  8  2  0  0  0  0
  7 12  1  0  0  0  0
  8  9  1  0  0  0  0
  9 10  2  0  0  0  0
 10 11  1  0  0  0  0
 11 12  2  0  0  0  0
M  END
>  <CHROM.1>
6.04049869,17.51540201,3.73881859,-1.31292346,0.93327797,1.13306765

>  <Name>
ligand

>  <RI>
0

>  <Rbt.Current_Directory>
/home/itssahil/PROJECTS/Mol_Feturizer/New_Systems/rnas/4LX5

>  <Rbt.Executable>
rbdock ($Id: //depot/dev/client3/rdock/2013.1/src/exe/rbdock.cxx#4 $)

>  <Rbt.Library>
libRbt.so (2013.1, Build901 2013/11/27)

>  <Rbt.Parameter_File>
/export/apps/rDock/src/rDock_2013.1_src/data/scripts/dock_solv.prm

>  <Rbt.Receptor>
prm/pocket_docking_7.prm

>  <SCORE>
-14.1183

>  <SCORE.INTER>
-14.1183

>  <SCORE.INTER.CONST>
1

>  <SCORE.INTER.POLAR>
0

>  <SCORE.INTER.ROT>
0

>  <SCORE.INTER.SOLV>
19.1284

>  <SCORE.INTER.VDW>
-19.3883

>  <SCORE.INTER.norm>
-1.17652

>  <SCORE.INTRA>
0

>  <SCORE.INTRA.DIHEDRAL>
0

>  <SCORE.INTRA.DIHEDRAL.0>
0

>  <SCORE.INTRA.POLAR>
0

>  <SCORE.INTRA.POLAR.0>
0

>  <SCORE.INTRA.REPUL>
0

>  <SCORE.INTRA.REPUL.0>
0

>  <SCORE.INTRA.SOLV>
0

>  <SCORE.INTRA.SOLV.lig_0>
-48.1583

>  <SCORE.INTRA.VDW>
0

>  <SCORE.INTRA.VDW.0>
0

>  <SCORE.INTRA.norm>
0

>  <SCORE.RESTR>
0

>  <SCORE.RESTR.CAVITY>
0

>  <SCORE.RESTR.norm>
0

>  <SCORE.SYSTEM>
0

>  <SCORE.SYSTEM.CONST>
0

>  <SCORE.SYSTEM.DIHEDRAL>
0

>  <SCORE.SYSTEM.SOLV>
0

>  <SCORE.SYSTEM.norm>
0

>  <SCORE.heavy>
12

>  <SCORE.norm>
-1.17652

>  <RMSD>
0.439

$$$$
ligand
 OpenBabel11021811503D
libRbt.so/2013.1/901 2013/11/27
 12 13  0  0  0  0  0  0  0  0999 V2000
    6.6809   17.5656    1.7586 C   0  0  0  0  0  0  0  0  0  0  0  0
    5.3522   16.3086    3.2041 C   0  0  0  0  0  0  0  0  0  0  0  0
    7.1691   17.7580    0.5365 N   0  0  0  0  0  0  0  0  0  0  0  0
    4.5598   15.2669    3.4796 N   0  0  0  0  0  0  0  0  0  0  0  0
    5.8746   16.5058    1.9863 N   0  0  0  0  0  0  0  0  0  0  0  0
    6.9753   18.4442    2.7425 N   0  0  0  0  0  0  0  0  0  0  0  0
    5.4402   17.8909    6.5441 N   0  0  0  0  0  0  0  0  0  0  0  0
    6.2769   18.9835    6.2687 C   0  0  0  0  0  0  0  0  0  0  0  0
    6.8049   19.1596    4.9684 N   0  0  0  0  0  0  0  0  0  0  0  0
    6.4799   18.2818    3.9948 C   0  0  0  0  0  0  0  0  0  0  0  0
    5.6383   17.1944    4.2502 C   0  0  0  0  0  0  0  0  0  0  0  0
    5.1075   16.9811    5.5211 C   0  0  0  0  0  0  0  0  0  0  0  0
  1  3  1  0  0  0  0
  1  5  1  0  0  0  0
  1  6  2  0  0  0  0
  2  5  2  0  0  0  0
  2 11  1  0  0  0  0
  2  4  1  0  0  0  0
  6 10  1  0  0  0  0
  7  8  2  0  0  0  0
  7 12  1  0  0  0  0
  8  9  1  0  0  0  0
  9 10  2  0  0  0  0
 10 11  1  0  0  0  0
 11 12  2  0  0  0  0
M  END
>  <CHROM.1>
6.03819446,17.52650437,3.74094285,-1.32655327,0.92271802,1.15595845

>  <Name>
ligand

>  <RI>
0

>  <Rbt.Current_Directory>
/home/itssahil/PROJECTS/Mol_Feturizer/New_Systems/rnas/4LX5

>  <Rbt.Executable>
rbdock ($Id: //depot/dev/client3/rdock/2013.1/src/exe/rbdock.cxx#4 $)

>  <Rbt.Library>
libRbt.so (2013.1, Build901 2013/11/27)

>  <Rbt.Parameter_File>
/export/apps/rDock/src/rDock_2013.1_src/data/scripts/dock_solv.prm

>  <Rbt.Receptor>
prm/pocket_docking_6.prm

>  <SCORE>
-14.0777

>  <SCORE.INTER>
-14.0777

>  <SCORE.INTER.CONST>
1

>  <SCORE.INTER.POLAR>
0

>  <SCORE.INTER.ROT>
0

>  <SCORE.INTER.SOLV>
18.9873

>  <SCORE.INTER.VDW>
-19.3142

>  <SCORE.INTER.norm>
-1.17314

>  <SCORE.INTRA>
0

>  <SCORE.INTRA.DIHEDRAL>
0

>  <SCORE.INTRA.DIHEDRAL.0>
0

>  <SCORE.INTRA.POLAR>
0

>  <SCORE.INTRA.POLAR.0>
0

>  <SCORE.INTRA.REPUL>
0

>  <SCORE.INTRA.REPUL.0>
0

>  <SCORE.INTRA.SOLV>
0

>  <SCORE.INTRA.SOLV.lig_0>
-48.1583

>  <SCORE.INTRA.VDW>
0

>  <SCORE.INTRA.VDW.0>
0

>  <SCORE.INTRA.norm>
0

>  <SCORE.RESTR>
0

>  <SCORE.RESTR.CAVITY>
0

>  <SCORE.RESTR.norm>
0

>  <SCORE.SYSTEM>
0

>  <SCORE.SYSTEM.CONST>
0

>  <SCORE.SYSTEM.DIHEDRAL>
0

>  <SCORE.SYSTEM.SOLV>
0

>  <SCORE.SYSTEM.norm>
0

>  <SCORE.heavy>
12

>  <SCORE.norm>
-1.17314

>  <RMSD>
0.440

$$$$
ligand
 OpenBabel11021811503D
libRbt.so/2013.1/901 2013/11/27
 12 13  0  0  0  0  0  0  0  0999 V2000
    6.6862   17.5460    1.7627 C   0  0  0  0  0  0  0  0  0  0  0  0
    5.3725   16.2859    3.2190 C   0  0  0  0  0  0  0  0  0  0  0  0
    7.1732   17.7330    0.5392 N   0  0  0  0  0  0  0  0  0  0  0  0
    4.5933   15.2367    3.5038 N   0  0  0  0  0  0  0  0  0  0  0  0
    5.8935   16.4781    1.9999 N   0  0  0  0  0  0  0  0  0  0  0  0
    6.9682   18.4378    2.7383 N   0  0  0  0  0  0  0  0  0  0  0  0
    5.4365   17.9013    6.5437 N   0  0  0  0  0  0  0  0  0  0  0  0
    6.2593   19.0019    6.2585 C   0  0  0  0  0  0  0  0  0  0  0  0
    6.7863   19.1723    4.9571 N   0  0  0  0  0  0  0  0  0  0  0  0
    6.4737   18.2811    3.9917 C   0  0  0  0  0  0  0  0  0  0  0  0
    5.6459   17.1854    4.2568 C   0  0  0  0  0  0  0  0  0  0  0  0
    5.1167   16.9775    5.5292 C   0  0  0  0  0  0  0  0  0  0  0  0
  1  3  1  0  0  0  0
  1  5  1  0  0  0  0
  1  6  2  0  0  0  0
  2  5  2  0  0  0  0
  2 11  1  0  0  0  0
  2  4  1  0  0  0  0
  6 10  1  0  0  0  0
  7  8  2  0  0  0  0
  7 12  1  0  0  0  0
  8  9  1  0  0  0  0
  9 10  2  0  0  0  0
 10 11  1  0  0  0  0
 11 12  2  0  0  0  0
M  END
>  <CHROM.1>
6.04205715,17.51771369,3.74471818,-1.31620408,0.93412117,1.13804111

>  <Name>
ligand

>  <RI>
0

>  <Rbt.Current_Directory>
/home/itssahil/PROJECTS/Mol_Feturizer/New_Systems/rnas/4LX5

>  <Rbt.Executable>
rbdock ($Id: //depot/dev/client3/rdock/2013.1/src/exe/rbdock.cxx#4 $)

>  <Rbt.Library>
libRbt.so (2013.1, Build901 2013/11/27)

>  <Rbt.Parameter_File>
/export/apps/rDock/src/rDock_2013.1_src/data/scripts/dock_solv.prm

>  <Rbt.Receptor>
prm/pocket_docking_8.prm

>  <SCORE>
-14.0863

>  <SCORE.INTER>
-14.0863

>  <SCORE.INTER.CONST>
1

>  <SCORE.INTER.POLAR>
0

>  <SCORE.INTER.ROT>
0

>  <SCORE.INTER.SOLV>
19.1197

>  <SCORE.INTER.VDW>
-19.3641

>  <SCORE.INTER.norm>
-1.17386

>  <SCORE.INTRA>
0

>  <SCORE.INTRA.DIHEDRAL>
0

>  <SCORE.INTRA.DIHEDRAL.0>
0

>  <SCORE.INTRA.POLAR>
0

>  <SCORE.INTRA.POLAR.0>
0

>  <SCORE.INTRA.REPUL>
0

>  <SCORE.INTRA.REPUL.0>
0

>  <SCORE.INTRA.SOLV>
0

>  <SCORE.INTRA.SOLV.lig_0>
-48.1583

>  <SCORE.INTRA.VDW>
0

>  <SCORE.INTRA.VDW.0>
0

>  <SCORE.INTRA.norm>
0

>  <SCORE.RESTR>
0

>  <SCORE.RESTR.CAVITY>
0

>  <SCORE.RESTR.norm>
0

>  <SCORE.SYSTEM>
0

>  <SCORE.SYSTEM.CONST>
0

>  <SCORE.SYSTEM.DIHEDRAL>
0

>  <SCORE.SYSTEM.SOLV>
0

>  <SCORE.SYSTEM.norm>
0

>  <SCORE.heavy>
12

>  <SCORE.norm>
-1.17386

>  <RMSD>
0.444

$$$$
ligand
 OpenBabel11021811503D
libRbt.so/2013.1/901 2013/11/27
 12 13  0  0  0  0  0  0  0  0999 V2000
    6.6825   17.5557    1.7711 C   0  0  0  0  0  0  0  0  0  0  0  0
    5.3696   16.2886    3.2222 C   0  0  0  0  0  0  0  0  0  0  0  0
    7.1703   17.7473    0.5487 N   0  0  0  0  0  0  0  0  0  0  0  0
    4.5920   15.2372    3.5030 N   0  0  0  0  0  0  0  0  0  0  0  0
    5.8914   16.4856    2.0042 N   0  0  0  0  0  0  0  0  0  0  0  0
    6.9621   18.4448    2.7498 N   0  0  0  0  0  0  0  0  0  0  0  0
    5.4278   17.8937    6.5521 N   0  0  0  0  0  0  0  0  0  0  0  0
    6.2489   18.9966    6.2711 C   0  0  0  0  0  0  0  0  0  0  0  0
    6.7769   19.1720    4.9707 N   0  0  0  0  0  0  0  0  0  0  0  0
    6.4667   18.2833    4.0022 C   0  0  0  0  0  0  0  0  0  0  0  0
    5.6406   17.1853    4.2631 C   0  0  0  0  0  0  0  0  0  0  0  0
    5.1105   16.9725    5.5343 C   0  0  0  0  0  0  0  0  0  0  0  0
  1  3  1  0  0  0  0
  1  5  1  0  0  0  0
  1  6  2  0  0  0  0
  2  5  2  0  0  0  0
  2 11  1  0  0  0  0
  2  4  1  0  0  0  0
  6 10  1  0  0  0  0
  7  8  2  0  0  0  0
  7 12  1  0  0  0  0
  8  9  1  0  0  0  0
  9 10  2  0  0  0  0
 10 11  1  0  0  0  0
 11 12  2  0  0  0  0
M  END
>  <CHROM.1>
6.03659041,17.51997126,3.75241156,-1.31357180,0.93529646,1.13908140

>  <Name>
ligand

>  <RI>
0

>  <Rbt.Current_Directory>
/home/itssahil/PROJECTS/Mol_Feturizer/New_Systems/rnas/4LX5

>  <Rbt.Executable>
rbdock ($Id: //depot/dev/client3/rdock/2013.1/src/exe/rbdock.cxx#4 $)

>  <Rbt.Library>
libRbt.so (2013.1, Build901 2013/11/27)

>  <Rbt.Parameter_File>
/export/apps/rDock/src/rDock_2013.1_src/data/scripts/dock_solv.prm

>  <Rbt.Receptor>
prm/pocket_docking_7.prm

>  <SCORE>
-14.0861

>  <SCORE.INTER>
-14.0861

>  <SCORE.INTER.CONST>
1

>  <SCORE.INTER.POLAR>
0

>  <SCORE.INTER.ROT>
0

>  <SCORE.INTER.SOLV>
19.1175

>  <SCORE.INTER.VDW>
-19.3632

>  <SCORE.INTER.norm>
-1.17384

>  <SCORE.INTRA>
0

>  <SCORE.INTRA.DIHEDRAL>
0

>  <SCORE.INTRA.DIHEDRAL.0>
0

>  <SCORE.INTRA.POLAR>
0

>  <SCORE.INTRA.POLAR.0>
0

>  <SCORE.INTRA.REPUL>
0

>  <SCORE.INTRA.REPUL.0>
0

>  <SCORE.INTRA.SOLV>
0

>  <SCORE.INTRA.SOLV.lig_0>
-48.1583

>  <SCORE.INTRA.VDW>
0

>  <SCORE.INTRA.VDW.0>
0

>  <SCORE.INTRA.norm>
0

>  <SCORE.RESTR>
0

>  <SCORE.RESTR.CAVITY>
0

>  <SCORE.RESTR.norm>
0

>  <SCORE.SYSTEM>
0

>  <SCORE.SYSTEM.CONST>
0

>  <SCORE.SYSTEM.DIHEDRAL>
0

>  <SCORE.SYSTEM.SOLV>
0

>  <SCORE.SYSTEM.norm>
0

>  <SCORE.heavy>
12

>  <SCORE.norm>
-1.17384

>  <RMSD>
0.451

$$$$
ligand
 OpenBabel11021811503D
libRbt.so/2013.1/901 2013/11/27
 12 13  0  0  0  0  0  0  0  0999 V2000
    6.6925   17.5712    1.7658 C   0  0  0  0  0  0  0  0  0  0  0  0
    5.3628   16.3196    3.2151 C   0  0  0  0  0  0  0  0  0  0  0  0
    7.1832   17.7578    0.5439 N   0  0  0  0  0  0  0  0  0  0  0  0
    4.5716   15.2780    3.4945 N   0  0  0  0  0  0  0  0  0  0  0  0
    5.8876   16.5111    1.9975 N   0  0  0  0  0  0  0  0  0  0  0  0
    6.9830   18.4557    2.7456 N   0  0  0  0  0  0  0  0  0  0  0  0
    5.4400   17.9204    6.5466 N   0  0  0  0  0  0  0  0  0  0  0  0
    6.2753   19.0130    6.2671 C   0  0  0  0  0  0  0  0  0  0  0  0
    6.8061   19.1829    4.9671 N   0  0  0  0  0  0  0  0  0  0  0  0
    6.4850   18.2993    3.9976 C   0  0  0  0  0  0  0  0  0  0  0  0
    5.6447   17.2117    4.2570 C   0  0  0  0  0  0  0  0  0  0  0  0
    5.1114   17.0044    5.5278 C   0  0  0  0  0  0  0  0  0  0  0  0
  1  3  1  0  0  0  0
  1  5  1  0  0  0  0
  1  6  2  0  0  0  0
  2  5  2  0  0  0  0
  2 11  1  0  0  0  0
  2  4  1  0  0  0  0
  6 10  1  0  0  0  0
  7  8  2  0  0  0  0
  7 12  1  0  0  0  0
  8  9  1  0  0  0  0
  9 10  2  0  0  0  0
 10 11  1  0  0  0  0
 11 12  2  0  0  0  0
M  END
>  <CHROM.1>
6.04524644,17.54173754,3.74686419,-1.32179009,0.92345824,1.14668800

>  <Name>
ligand

>  <RI>
0

>  <Rbt.Current_Directory>
/home/itssahil/PROJECTS/Mol_Feturizer/New_Systems/rnas/4LX5

>  <Rbt.Executable>
rbdock ($Id: //depot/dev/client3/rdock/2013.1/src/exe/rbdock.cxx#4 $)

>  <Rbt.Library>
libRbt.so (2013.1, Build901 2013/11/27)

>  <Rbt.Parameter_File>
/export/apps/rDock/src/rDock_2013.1_src/data/scripts/dock_solv.prm

>  <Rbt.Receptor>
prm/pocket_docking_4.prm

>  <SCORE>
-14.1196

>  <SCORE.INTER>
-14.1196

>  <SCORE.INTER.CONST>
1

>  <SCORE.INTER.POLAR>
0

>  <SCORE.INTER.ROT>
0

>  <SCORE.INTER.SOLV>
19.0182

>  <SCORE.INTER.VDW>
-19.3525

>  <SCORE.INTER.norm>
-1.17664

>  <SCORE.INTRA>
0

>  <SCORE.INTRA.DIHEDRAL>
0

>  <SCORE.INTRA.DIHEDRAL.0>
0

>  <SCORE.INTRA.POLAR>
0

>  <SCORE.INTRA.POLAR.0>
0

>  <SCORE.INTRA.REPUL>
0

>  <SCORE.INTRA.REPUL.0>
0

>  <SCORE.INTRA.SOLV>
0

>  <SCORE.INTRA.SOLV.lig_0>
-48.1583

>  <SCORE.INTRA.VDW>
0

>  <SCORE.INTRA.VDW.0>
0

>  <SCORE.INTRA.norm>
0

>  <SCORE.RESTR>
0

>  <SCORE.RESTR.CAVITY>
0

>  <SCORE.RESTR.norm>
0

>  <SCORE.SYSTEM>
0

>  <SCORE.SYSTEM.CONST>
0

>  <SCORE.SYSTEM.DIHEDRAL>
0

>  <SCORE.SYSTEM.SOLV>
0

>  <SCORE.SYSTEM.norm>
0

>  <SCORE.heavy>
12

>  <SCORE.norm>
-1.17664

>  <RMSD>
0.452

$$$$
ligand
 OpenBabel11021811503D
libRbt.so/2013.1/901 2013/11/27
 12 13  0  0  0  0  0  0  0  0999 V2000
    6.6839   17.5538    1.7702 C   0  0  0  0  0  0  0  0  0  0  0  0
    5.3683   16.2932    3.2246 C   0  0  0  0  0  0  0  0  0  0  0  0
    7.1705   17.7424    0.5469 N   0  0  0  0  0  0  0  0  0  0  0  0
    4.5870   15.2451    3.5075 N   0  0  0  0  0  0  0  0  0  0  0  0
    5.8890   16.4871    2.0055 N   0  0  0  0  0  0  0  0  0  0  0  0
    6.9684   18.4428    2.7477 N   0  0  0  0  0  0  0  0  0  0  0  0
    5.4378   17.9012    6.5528 N   0  0  0  0  0  0  0  0  0  0  0  0
    6.2628   19.0006    6.2696 C   0  0  0  0  0  0  0  0  0  0  0  0
    6.7894   19.1727    4.9681 N   0  0  0  0  0  0  0  0  0  0  0  0
    6.4743   18.2844    4.0010 C   0  0  0  0  0  0  0  0  0  0  0  0
    5.6443   17.1899    4.2642 C   0  0  0  0  0  0  0  0  0  0  0  0
    5.1154   16.9802    5.5364 C   0  0  0  0  0  0  0  0  0  0  0  0
  1  3  1  0  0  0  0
  1  5  1  0  0  0  0
  1  6  2  0  0  0  0
  2  5  2  0  0  0  0
  2 11  1  0  0  0  0
  2  4  1  0  0  0  0
  6 10  1  0  0  0  0
  7  8  2  0  0  0  0
  7 12  1  0  0  0  0
  8  9  1  0  0  0  0
  9 10  2  0  0  0  0
 10 11  1  0  0  0  0
 11 12  2  0  0  0  0
M  END
>  <CHROM.1>
6.04087324,17.52246452,3.75258201,-1.31864007,0.93242214,1.14222494

>  <Name>
ligand

>  <RI>
0

>  <Rbt.Current_Directory>
/home/itssahil/PROJECTS/Mol_Feturizer/New_Systems/rnas/4LX5

>  <Rbt.Executable>
rbdock ($Id: //depot/dev/client3/rdock/2013.1/src/exe/rbdock.cxx#4 $)

>  <Rbt.Library>
libRbt.so (2013.1, Build901 2013/11/27)

>  <Rbt.Parameter_File>
/export/apps/rDock/src/rDock_2013.1_src/data/scripts/dock_solv.prm

>  <Rbt.Receptor>
prm/pocket_docking_5.prm

>  <SCORE>
-14.0871

>  <SCORE.INTER>
-14.0871

>  <SCORE.INTER.CONST>
1

>  <SCORE.INTER.POLAR>
0

>  <SCORE.INTER.ROT>
0

>  <SCORE.INTER.SOLV>
19.0869

>  <SCORE.INTER.VDW>
-19.3537

>  <SCORE.INTER.norm>
-1.17392

>  <SCORE.INTRA>
0

>  <SCORE.INTRA.DIHEDRAL>
0

>  <SCORE.INTRA.DIHEDRAL.0>
0

>  <SCORE.INTRA.POLAR>
0

>  <SCORE.INTRA.POLAR.0>
0

>  <SCORE.INTRA.REPUL>
0

>  <SCORE.INTRA.REPUL.0>
0

>  <SCORE.INTRA.SOLV>
0

>  <SCORE.INTRA.SOLV.lig_0>
-48.1583

>  <SCORE.INTRA.VDW>
0

>  <SCORE.INTRA.VDW.0>
0

>  <SCORE.INTRA.norm>
0

>  <SCORE.RESTR>
0

>  <SCORE.RESTR.CAVITY>
0

>  <SCORE.RESTR.norm>
0

>  <SCORE.SYSTEM>
0

>  <SCORE.SYSTEM.CONST>
0

>  <SCORE.SYSTEM.DIHEDRAL>
0

>  <SCORE.SYSTEM.SOLV>
0

>  <SCORE.SYSTEM.norm>
0

>  <SCORE.heavy>
12

>  <SCORE.norm>
-1.17392

>  <RMSD>
0.452

$$$$
ligand
 OpenBabel11021811503D
libRbt.so/2013.1/901 2013/11/27
 12 13  0  0  0  0  0  0  0  0999 V2000
    6.6751   17.5512    1.7662 C   0  0  0  0  0  0  0  0  0  0  0  0
    5.3610   16.2962    3.2268 C   0  0  0  0  0  0  0  0  0  0  0  0
    7.1571   17.7374    0.5408 N   0  0  0  0  0  0  0  0  0  0  0  0
    4.5771   15.2512    3.5136 N   0  0  0  0  0  0  0  0  0  0  0  0
    5.8772   16.4875    2.0055 N   0  0  0  0  0  0  0  0  0  0  0  0
    6.9671   18.4395    2.7421 N   0  0  0  0  0  0  0  0  0  0  0  0
    5.4509   17.9055    6.5540 N   0  0  0  0  0  0  0  0  0  0  0  0
    6.2787   19.0017    6.2666 C   0  0  0  0  0  0  0  0  0  0  0  0
    6.8004   19.1712    4.9629 N   0  0  0  0  0  0  0  0  0  0  0  0
    6.4778   18.2836    3.9975 C   0  0  0  0  0  0  0  0  0  0  0  0
    5.6449   17.1923    4.2648 C   0  0  0  0  0  0  0  0  0  0  0  0
    5.1207   16.9853    5.5394 C   0  0  0  0  0  0  0  0  0  0  0  0
  1  3  1  0  0  0  0
  1  5  1  0  0  0  0
  1  6  2  0  0  0  0
  2  5  2  0  0  0  0
  2 11  1  0  0  0  0
  2  4  1  0  0  0  0
  6 10  1  0  0  0  0
  7  8  2  0  0  0  0
  7 12  1  0  0  0  0
  8  9  1  0  0  0  0
  9 10  2  0  0  0  0
 10 11  1  0  0  0  0
 11 12  2  0  0  0  0
M  END
>  <CHROM.1>
6.04046223,17.52317816,3.75136427,-1.32777794,0.93078062,1.14907837

>  <Name>
ligand

>  <RI>
0

>  <Rbt.Current_Directory>
/home/itssahil/PROJECTS/Mol_Feturizer/New_Systems/rnas/4LX5

>  <Rbt.Executable>
rbdock ($Id: //depot/dev/client3/rdock/2013.1/src/exe/rbdock.cxx#4 $)

>  <Rbt.Library>
libRbt.so (2013.1, Build901 2013/11/27)

>  <Rbt.Parameter_File>
/export/apps/rDock/src/rDock_2013.1_src/data/scripts/dock_solv.prm

>  <Rbt.Receptor>
prm/blind_docking_40.prm

>  <SCORE>
-14.0856

>  <SCORE.INTER>
-14.0856

>  <SCORE.INTER.CONST>
1

>  <SCORE.INTER.POLAR>
0

>  <SCORE.INTER.ROT>
0

>  <SCORE.INTER.SOLV>
19.0322

>  <SCORE.INTER.VDW>
-19.3344

>  <SCORE.INTER.norm>
-1.1738

>  <SCORE.INTRA>
0

>  <SCORE.INTRA.DIHEDRAL>
0

>  <SCORE.INTRA.DIHEDRAL.0>
0

>  <SCORE.INTRA.POLAR>
0

>  <SCORE.INTRA.POLAR.0>
0

>  <SCORE.INTRA.REPUL>
0

>  <SCORE.INTRA.REPUL.0>
0

>  <SCORE.INTRA.SOLV>
0

>  <SCORE.INTRA.SOLV.lig_0>
-48.1583

>  <SCORE.INTRA.VDW>
0

>  <SCORE.INTRA.VDW.0>
0

>  <SCORE.INTRA.norm>
0

>  <SCORE.RESTR>
0

>  <SCORE.RESTR.CAVITY>
0

>  <SCORE.RESTR.norm>
0

>  <SCORE.SYSTEM>
0

>  <SCORE.SYSTEM.CONST>
0

>  <SCORE.SYSTEM.DIHEDRAL>
0

>  <SCORE.SYSTEM.SOLV>
0

>  <SCORE.SYSTEM.norm>
0

>  <SCORE.heavy>
12

>  <SCORE.norm>
-1.1738

>  <RMSD>
0.453

$$$$
ligand
 OpenBabel11021811503D
libRbt.so/2013.1/901 2013/11/27
 12 13  0  0  0  0  0  0  0  0999 V2000
    6.7130   17.6158    1.7794 C   0  0  0  0  0  0  0  0  0  0  0  0
    5.3879   16.3291    3.2020 C   0  0  0  0  0  0  0  0  0  0  0  0
    7.2132   17.8225    0.5646 N   0  0  0  0  0  0  0  0  0  0  0  0
    4.6099   15.2728    3.4624 N   0  0  0  0  0  0  0  0  0  0  0  0
    5.9221   16.5413    1.9919 N   0  0  0  0  0  0  0  0  0  0  0  0
    6.9799   18.4944    2.7712 N   0  0  0  0  0  0  0  0  0  0  0  0
    5.4066   17.8962    6.5503 N   0  0  0  0  0  0  0  0  0  0  0  0
    6.2279   19.0042    6.2907 C   0  0  0  0  0  0  0  0  0  0  0  0
    6.7692   19.1957    4.9981 N   0  0  0  0  0  0  0  0  0  0  0  0
    6.4716   18.3174    4.0162 C   0  0  0  0  0  0  0  0  0  0  0  0
    5.6455   17.2145    4.2558 C   0  0  0  0  0  0  0  0  0  0  0  0
    5.1025   16.9859    5.5188 C   0  0  0  0  0  0  0  0  0  0  0  0
  1  3  1  0  0  0  0
  1  5  1  0  0  0  0
  1  6  2  0  0  0  0
  2  5  2  0  0  0  0
  2 11  1  0  0  0  0
  2  4  1  0  0  0  0
  6 10  1  0  0  0  0
  7  8  2  0  0  0  0
  7 12  1  0  0  0  0
  8  9  1  0  0  0  0
  9 10  2  0  0  0  0
 10 11  1  0  0  0  0
 11 12  2  0  0  0  0
M  END
>  <CHROM.1>
6.04609960,17.55592407,3.75323899,-1.29557994,0.93304059,1.13602274

>  <Name>
ligand

>  <RI>
0

>  <Rbt.Current_Directory>
/home/itssahil/PROJECTS/Mol_Feturizer/New_Systems/rnas/4LX5

>  <Rbt.Executable>
rbdock ($Id: //depot/dev/client3/rdock/2013.1/src/exe/rbdock.cxx#4 $)

>  <Rbt.Library>
libRbt.so (2013.1, Build901 2013/11/27)

>  <Rbt.Parameter_File>
/export/apps/rDock/src/rDock_2013.1_src/data/scripts/dock_solv.prm

>  <Rbt.Receptor>
prm/pocket_docking_4.prm

>  <SCORE>
-14.0832

>  <SCORE.INTER>
-14.0832

>  <SCORE.INTER.CONST>
1

>  <SCORE.INTER.POLAR>
0

>  <SCORE.INTER.ROT>
0

>  <SCORE.INTER.SOLV>
19.2359

>  <SCORE.INTER.VDW>
-19.4008

>  <SCORE.INTER.norm>
-1.1736

>  <SCORE.INTRA>
0

>  <SCORE.INTRA.DIHEDRAL>
0

>  <SCORE.INTRA.DIHEDRAL.0>
0

>  <SCORE.INTRA.POLAR>
0

>  <SCORE.INTRA.POLAR.0>
0

>  <SCORE.INTRA.REPUL>
0

>  <SCORE.INTRA.REPUL.0>
0

>  <SCORE.INTRA.SOLV>
0

>  <SCORE.INTRA.SOLV.lig_0>
-48.1583

>  <SCORE.INTRA.VDW>
0

>  <SCORE.INTRA.VDW.0>
0

>  <SCORE.INTRA.norm>
0

>  <SCORE.RESTR>
0

>  <SCORE.RESTR.CAVITY>
0

>  <SCORE.RESTR.norm>
0

>  <SCORE.SYSTEM>
0

>  <SCORE.SYSTEM.CONST>
0

>  <SCORE.SYSTEM.DIHEDRAL>
0

>  <SCORE.SYSTEM.SOLV>
0

>  <SCORE.SYSTEM.norm>
0

>  <SCORE.heavy>
12

>  <SCORE.norm>
-1.1736

>  <RMSD>
0.455

$$$$
ligand
 OpenBabel11021811503D
libRbt.so/2013.1/901 2013/11/27
 12 13  0  0  0  0  0  0  0  0999 V2000
    6.7013   17.5702    1.7715 C   0  0  0  0  0  0  0  0  0  0  0  0
    5.3714   16.3175    3.2196 C   0  0  0  0  0  0  0  0  0  0  0  0
    7.1945   17.7562    0.5504 N   0  0  0  0  0  0  0  0  0  0  0  0
    4.5823   15.2742    3.4987 N   0  0  0  0  0  0  0  0  0  0  0  0
    5.8987   16.5084    2.0029 N   0  0  0  0  0  0  0  0  0  0  0  0
    6.9872   18.4570    2.7506 N   0  0  0  0  0  0  0  0  0  0  0  0
    5.4364   17.9237    6.5487 N   0  0  0  0  0  0  0  0  0  0  0  0
    6.2696   19.0180    6.2695 C   0  0  0  0  0  0  0  0  0  0  0  0
    6.8030   19.1873    4.9705 N   0  0  0  0  0  0  0  0  0  0  0  0
    6.4866   18.3013    4.0016 C   0  0  0  0  0  0  0  0  0  0  0  0
    5.6485   17.2120    4.2607 C   0  0  0  0  0  0  0  0  0  0  0  0
    5.1127   17.0052    5.5305 C   0  0  0  0  0  0  0  0  0  0  0  0
  1  3  1  0  0  0  0
  1  5  1  0  0  0  0
  1  6  2  0  0  0  0
  2  5  2  0  0  0  0
  2 11  1  0  0  0  0
  2  4  1  0  0  0  0
  6 10  1  0  0  0  0
  7  8  2  0  0  0  0
  7 12  1  0  0  0  0
  8  9  1  0  0  0  0
  9 10  2  0  0  0  0
 10 11  1  0  0  0  0
 11 12  2  0  0  0  0
M  END
>  <CHROM.1>
6.04939941,17.54223572,3.75103939,-1.31634520,0.92483338,1.14076354

>  <Name>
ligand

>  <RI>
0

>  <Rbt.Current_Directory>
/home/itssahil/PROJECTS/Mol_Feturizer/New_Systems/rnas/4LX5

>  <Rbt.Executable>
rbdock ($Id: //depot/dev/client3/rdock/2013.1/src/exe/rbdock.cxx#4 $)

>  <Rbt.Library>
libRbt.so (2013.1, Build901 2013/11/27)

>  <Rbt.Parameter_File>
/export/apps/rDock/src/rDock_2013.1_src/data/scripts/dock_solv.prm

>  <Rbt.Receptor>
prm/pocket_docking_8.prm

>  <SCORE>
-14.0858

>  <SCORE.INTER>
-14.0858

>  <SCORE.INTER.CONST>
1

>  <SCORE.INTER.POLAR>
0

>  <SCORE.INTER.ROT>
0

>  <SCORE.INTER.SOLV>
19.0607

>  <SCORE.INTER.VDW>
-19.3441

>  <SCORE.INTER.norm>
-1.17382

>  <SCORE.INTRA>
0

>  <SCORE.INTRA.DIHEDRAL>
0

>  <SCORE.INTRA.DIHEDRAL.0>
0

>  <SCORE.INTRA.POLAR>
0

>  <SCORE.INTRA.POLAR.0>
0

>  <SCORE.INTRA.REPUL>
0

>  <SCORE.INTRA.REPUL.0>
0

>  <SCORE.INTRA.SOLV>
0

>  <SCORE.INTRA.SOLV.lig_0>
-48.1583

>  <SCORE.INTRA.VDW>
0

>  <SCORE.INTRA.VDW.0>
0

>  <SCORE.INTRA.norm>
0

>  <SCORE.RESTR>
0

>  <SCORE.RESTR.CAVITY>
0

>  <SCORE.RESTR.norm>
0

>  <SCORE.SYSTEM>
0

>  <SCORE.SYSTEM.CONST>
0

>  <SCORE.SYSTEM.DIHEDRAL>
0

>  <SCORE.SYSTEM.SOLV>
0

>  <SCORE.SYSTEM.norm>
0

>  <SCORE.heavy>
12

>  <SCORE.norm>
-1.17382

>  <RMSD>
0.455

$$$$
ligand
 OpenBabel11021811503D
libRbt.so/2013.1/901 2013/11/27
 12 13  0  0  0  0  0  0  0  0999 V2000
    6.7034   17.6600    1.7575 C   0  0  0  0  0  0  0  0  0  0  0  0
    5.4050   16.3587    3.1913 C   0  0  0  0  0  0  0  0  0  0  0  0
    7.1897   17.8731    0.5381 N   0  0  0  0  0  0  0  0  0  0  0  0
    4.6400   15.2944    3.4580 N   0  0  0  0  0  0  0  0  0  0  0  0
    5.9253   16.5775    1.9763 N   0  0  0  0  0  0  0  0  0  0  0  0
    6.9713   18.5400    2.7477 N   0  0  0  0  0  0  0  0  0  0  0  0
    5.4409   17.9221    6.5412 N   0  0  0  0  0  0  0  0  0  0  0  0
    6.2487   19.0385    6.2750 C   0  0  0  0  0  0  0  0  0  0  0  0
    6.7755   19.2368    4.9774 N   0  0  0  0  0  0  0  0  0  0  0  0
    6.4769   18.3567    3.9974 C   0  0  0  0  0  0  0  0  0  0  0  0
    5.6641   17.2455    4.2437 C   0  0  0  0  0  0  0  0  0  0  0  0
    5.1357   17.0101    5.5116 C   0  0  0  0  0  0  0  0  0  0  0  0
  1  3  1  0  0  0  0
  1  5  1  0  0  0  0
  1  6  2  0  0  0  0
  2  5  2  0  0  0  0
  2 11  1  0  0  0  0
  2  4  1  0  0  0  0
  6 10  1  0  0  0  0
  7  8  2  0  0  0  0
  7 12  1  0  0  0  0
  8  9  1  0  0  0  0
  9 10  2  0  0  0  0
 10 11  1  0  0  0  0
 11 12  2  0  0  0  0
M  END
>  <CHROM.1>
6.05641812,17.59133609,3.73763168,-1.30361339,0.94607776,1.14368807

>  <Name>
ligand

>  <RI>
0

>  <Rbt.Current_Directory>
/home/itssahil/PROJECTS/Mol_Feturizer/New_Systems/rnas/4LX5

>  <Rbt.Executable>
rbdock ($Id: //depot/dev/client3/rdock/2013.1/src/exe/rbdock.cxx#4 $)

>  <Rbt.Library>
libRbt.so (2013.1, Build901 2013/11/27)

>  <Rbt.Parameter_File>
/export/apps/rDock/src/rDock_2013.1_src/data/scripts/dock_solv.prm

>  <Rbt.Receptor>
prm/blind_docking_60.prm

>  <SCORE>
-14.0799

>  <SCORE.INTER>
-14.0799

>  <SCORE.INTER.CONST>
1

>  <SCORE.INTER.POLAR>
0

>  <SCORE.INTER.ROT>
0

>  <SCORE.INTER.SOLV>
19.3968

>  <SCORE.INTER.VDW>
-19.4522

>  <SCORE.INTER.norm>
-1.17332

>  <SCORE.INTRA>
0

>  <SCORE.INTRA.DIHEDRAL>
0

>  <SCORE.INTRA.DIHEDRAL.0>
0

>  <SCORE.INTRA.POLAR>
0

>  <SCORE.INTRA.POLAR.0>
0

>  <SCORE.INTRA.REPUL>
0

>  <SCORE.INTRA.REPUL.0>
0

>  <SCORE.INTRA.SOLV>
0

>  <SCORE.INTRA.SOLV.lig_0>
-48.1583

>  <SCORE.INTRA.VDW>
0

>  <SCORE.INTRA.VDW.0>
0

>  <SCORE.INTRA.norm>
0

>  <SCORE.RESTR>
0

>  <SCORE.RESTR.CAVITY>
0

>  <SCORE.RESTR.norm>
0

>  <SCORE.SYSTEM>
0

>  <SCORE.SYSTEM.CONST>
0

>  <SCORE.SYSTEM.DIHEDRAL>
0

>  <SCORE.SYSTEM.SOLV>
0

>  <SCORE.SYSTEM.norm>
0

>  <SCORE.heavy>
12

>  <SCORE.norm>
-1.17332

>  <RMSD>
0.459

$$$$
ligand
 OpenBabel11021811503D
libRbt.so/2013.1/901 2013/11/27
 12 13  0  0  0  0  0  0  0  0999 V2000
    6.7185   17.6037    1.7928 C   0  0  0  0  0  0  0  0  0  0  0  0
    5.3834   16.3253    3.2133 C   0  0  0  0  0  0  0  0  0  0  0  0
    7.2217   17.8074    0.5786 N   0  0  0  0  0  0  0  0  0  0  0  0
    4.5984   15.2738    3.4726 N   0  0  0  0  0  0  0  0  0  0  0  0
    5.9206   16.5342    2.0040 N   0  0  0  0  0  0  0  0  0  0  0  0
    6.9896   18.4804    2.7850 N   0  0  0  0  0  0  0  0  0  0  0  0
    5.4076   17.8918    6.5619 N   0  0  0  0  0  0  0  0  0  0  0  0
    6.2362   18.9946    6.3036 C   0  0  0  0  0  0  0  0  0  0  0  0
    6.7805   19.1828    5.0117 N   0  0  0  0  0  0  0  0  0  0  0  0
    6.4786   18.3065    4.0293 C   0  0  0  0  0  0  0  0  0  0  0  0
    5.6452   17.2089    4.2676 C   0  0  0  0  0  0  0  0  0  0  0  0
    5.0990   16.9836    5.5299 C   0  0  0  0  0  0  0  0  0  0  0  0
  1  3  1  0  0  0  0
  1  5  1  0  0  0  0
  1  6  2  0  0  0  0
  2  5  2  0  0  0  0
  2 11  1  0  0  0  0
  2  4  1  0  0  0  0
  6 10  1  0  0  0  0
  7  8  2  0  0  0  0
  7 12  1  0  0  0  0
  8  9  1  0  0  0  0
  9 10  2  0  0  0  0
 10 11  1  0  0  0  0
 11 12  2  0  0  0  0
M  END
>  <CHROM.1>
6.04860405,17.54780720,3.76566726,-1.29800542,0.92673424,1.13809323

>  <Name>
ligand

>  <RI>
0

>  <Rbt.Current_Directory>
/home/itssahil/PROJECTS/Mol_Feturizer/New_Systems/rnas/4LX5

>  <Rbt.Executable>
rbdock ($Id: //depot/dev/client3/rdock/2013.1/src/exe/rbdock.cxx#4 $)

>  <Rbt.Library>
libRbt.so (2013.1, Build901 2013/11/27)

>  <Rbt.Parameter_File>
/export/apps/rDock/src/rDock_2013.1_src/data/scripts/dock_solv.prm

>  <Rbt.Receptor>
prm/blind_docking_60.prm

>  <SCORE>
-14.0818

>  <SCORE.INTER>
-14.0818

>  <SCORE.INTER.CONST>
1

>  <SCORE.INTER.POLAR>
0

>  <SCORE.INTER.ROT>
0

>  <SCORE.INTER.SOLV>
19.1794

>  <SCORE.INTER.VDW>
-19.381

>  <SCORE.INTER.norm>
-1.17349

>  <SCORE.INTRA>
0

>  <SCORE.INTRA.DIHEDRAL>
0

>  <SCORE.INTRA.DIHEDRAL.0>
0

>  <SCORE.INTRA.POLAR>
0

>  <SCORE.INTRA.POLAR.0>
0

>  <SCORE.INTRA.REPUL>
0

>  <SCORE.INTRA.REPUL.0>
0

>  <SCORE.INTRA.SOLV>
0

>  <SCORE.INTRA.SOLV.lig_0>
-48.1583

>  <SCORE.INTRA.VDW>
0

>  <SCORE.INTRA.VDW.0>
0

>  <SCORE.INTRA.norm>
0

>  <SCORE.RESTR>
0

>  <SCORE.RESTR.CAVITY>
0

>  <SCORE.RESTR.norm>
0

>  <SCORE.SYSTEM>
0

>  <SCORE.SYSTEM.CONST>
0

>  <SCORE.SYSTEM.DIHEDRAL>
0

>  <SCORE.SYSTEM.SOLV>
0

>  <SCORE.SYSTEM.norm>
0

>  <SCORE.heavy>
12

>  <SCORE.norm>
-1.17349

>  <RMSD>
0.462

$$$$
ligand
 OpenBabel11021811503D
libRbt.so/2013.1/901 2013/11/27
 12 13  0  0  0  0  0  0  0  0999 V2000
    6.6735   17.5580    1.7994 C   0  0  0  0  0  0  0  0  0  0  0  0
    5.3691   16.2833    3.2515 C   0  0  0  0  0  0  0  0  0  0  0  0
    7.1583   17.7531    0.5764 N   0  0  0  0  0  0  0  0  0  0  0  0
    4.5970   15.2279    3.5325 N   0  0  0  0  0  0  0  0  0  0  0  0
    5.8879   16.4839    2.0328 N   0  0  0  0  0  0  0  0  0  0  0  0
    6.9504   18.4476    2.7785 N   0  0  0  0  0  0  0  0  0  0  0  0
    5.4250   17.8855    6.5827 N   0  0  0  0  0  0  0  0  0  0  0  0
    6.2403   18.9926    6.3014 C   0  0  0  0  0  0  0  0  0  0  0  0
    6.7653   19.1718    5.0003 N   0  0  0  0  0  0  0  0  0  0  0  0
    6.4578   18.2825    4.0315 C   0  0  0  0  0  0  0  0  0  0  0  0
    5.6374   17.1803    4.2927 C   0  0  0  0  0  0  0  0  0  0  0  0
    5.1105   16.9637    5.5646 C   0  0  0  0  0  0  0  0  0  0  0  0
  1  3  1  0  0  0  0
  1  5  1  0  0  0  0
  1  6  2  0  0  0  0
  2  5  2  0  0  0  0
  2 11  1  0  0  0  0
  2  4  1  0  0  0  0
  6 10  1  0  0  0  0
  7  8  2  0  0  0  0
  7 12  1  0  0  0  0
  8  9  1  0  0  0  0
  9 10  2  0  0  0  0
 10 11  1  0  0  0  0
 11 12  2  0  0  0  0
M  END
>  <CHROM.1>
6.03097512,17.51734309,3.78173177,-1.31267338,0.94036125,1.13929547

>  <Name>
ligand

>  <RI>
0

>  <Rbt.Current_Directory>
/home/itssahil/PROJECTS/Mol_Feturizer/New_Systems/rnas/4LX5

>  <Rbt.Executable>
rbdock ($Id: //depot/dev/client3/rdock/2013.1/src/exe/rbdock.cxx#4 $)

>  <Rbt.Library>
libRbt.so (2013.1, Build901 2013/11/27)

>  <Rbt.Parameter_File>
/export/apps/rDock/src/rDock_2013.1_src/data/scripts/dock_solv.prm

>  <Rbt.Receptor>
prm/blind_docking_60.prm

>  <SCORE>
-14.1323

>  <SCORE.INTER>
-14.1323

>  <SCORE.INTER.CONST>
1

>  <SCORE.INTER.POLAR>
0

>  <SCORE.INTER.ROT>
0

>  <SCORE.INTER.SOLV>
19.1593

>  <SCORE.INTER.VDW>
-19.408

>  <SCORE.INTER.norm>
-1.17769

>  <SCORE.INTRA>
0

>  <SCORE.INTRA.DIHEDRAL>
0

>  <SCORE.INTRA.DIHEDRAL.0>
0

>  <SCORE.INTRA.POLAR>
0

>  <SCORE.INTRA.POLAR.0>
0

>  <SCORE.INTRA.REPUL>
0

>  <SCORE.INTRA.REPUL.0>
0

>  <SCORE.INTRA.SOLV>
0

>  <SCORE.INTRA.SOLV.lig_0>
-48.1583

>  <SCORE.INTRA.VDW>
0

>  <SCORE.INTRA.VDW.0>
0

>  <SCORE.INTRA.norm>
0

>  <SCORE.RESTR>
0

>  <SCORE.RESTR.CAVITY>
0

>  <SCORE.RESTR.norm>
0

>  <SCORE.SYSTEM>
0

>  <SCORE.SYSTEM.CONST>
0

>  <SCORE.SYSTEM.DIHEDRAL>
0

>  <SCORE.SYSTEM.SOLV>
0

>  <SCORE.SYSTEM.norm>
0

>  <SCORE.heavy>
12

>  <SCORE.norm>
-1.17769

>  <RMSD>
0.477

$$$$
ligand
 OpenBabel11021811503D
libRbt.so/2013.1/901 2013/11/27
 12 13  0  0  0  0  0  0  0  0999 V2000
    6.6906   17.5642    1.8046 C   0  0  0  0  0  0  0  0  0  0  0  0
    5.3819   16.2872    3.2508 C   0  0  0  0  0  0  0  0  0  0  0  0
    7.1803   17.7604    0.5837 N   0  0  0  0  0  0  0  0  0  0  0  0
    4.6102   15.2305    3.5283 N   0  0  0  0  0  0  0  0  0  0  0  0
    5.9056   16.4889    2.0343 N   0  0  0  0  0  0  0  0  0  0  0  0
    6.9620   18.4539    2.7851 N   0  0  0  0  0  0  0  0  0  0  0  0
    5.4214   17.8885    6.5827 N   0  0  0  0  0  0  0  0  0  0  0  0
    6.2362   18.9969    6.3052 C   0  0  0  0  0  0  0  0  0  0  0  0
    6.7664   19.1772    5.0063 N   0  0  0  0  0  0  0  0  0  0  0  0
    6.4644   18.2878    4.0360 C   0  0  0  0  0  0  0  0  0  0  0  0
    5.6445   17.1843    4.2934 C   0  0  0  0  0  0  0  0  0  0  0  0
    5.1125   16.9666    5.5630 C   0  0  0  0  0  0  0  0  0  0  0  0
  1  3  1  0  0  0  0
  1  5  1  0  0  0  0
  1  6  2  0  0  0  0
  2  5  2  0  0  0  0
  2 11  1  0  0  0  0
  2  4  1  0  0  0  0
  6 10  1  0  0  0  0
  7  8  2  0  0  0  0
  7 12  1  0  0  0  0
  8  9  1  0  0  0  0
  9 10  2  0  0  0  0
 10 11  1  0  0  0  0
 11 12  2  0  0  0  0
M  END
>  <CHROM.1>
6.03975364,17.52204093,3.78417139,-1.30510753,0.93993131,1.13346215

>  <Name>
ligand

>  <RI>
0

>  <Rbt.Current_Directory>
/home/itssahil/PROJECTS/Mol_Feturizer/New_Systems/rnas/4LX5

>  <Rbt.Executable>
rbdock ($Id: //depot/dev/client3/rdock/2013.1/src/exe/rbdock.cxx#4 $)

>  <Rbt.Library>
libRbt.so (2013.1, Build901 2013/11/27)

>  <Rbt.Parameter_File>
/export/apps/rDock/src/rDock_2013.1_src/data/scripts/dock_solv.prm

>  <Rbt.Receptor>
prm/pocket_docking_8.prm

>  <SCORE>
-14.1313

>  <SCORE.INTER>
-14.1313

>  <SCORE.INTER.CONST>
1

>  <SCORE.INTER.POLAR>
0

>  <SCORE.INTER.ROT>
0

>  <SCORE.INTER.SOLV>
19.2202

>  <SCORE.INTER.VDW>
-19.4276

>  <SCORE.INTER.norm>
-1.17761

>  <SCORE.INTRA>
0

>  <SCORE.INTRA.DIHEDRAL>
0

>  <SCORE.INTRA.DIHEDRAL.0>
0

>  <SCORE.INTRA.POLAR>
0

>  <SCORE.INTRA.POLAR.0>
0

>  <SCORE.INTRA.REPUL>
0

>  <SCORE.INTRA.REPUL.0>
0

>  <SCORE.INTRA.SOLV>
0

>  <SCORE.INTRA.SOLV.lig_0>
-48.1583

>  <SCORE.INTRA.VDW>
0

>  <SCORE.INTRA.VDW.0>
0

>  <SCORE.INTRA.norm>
0

>  <SCORE.RESTR>
0

>  <SCORE.RESTR.CAVITY>
0

>  <SCORE.RESTR.norm>
0

>  <SCORE.SYSTEM>
0

>  <SCORE.SYSTEM.CONST>
0

>  <SCORE.SYSTEM.DIHEDRAL>
0

>  <SCORE.SYSTEM.SOLV>
0

>  <SCORE.SYSTEM.norm>
0

>  <SCORE.heavy>
12

>  <SCORE.norm>
-1.17761

>  <RMSD>
0.478

$$$$
ligand
 OpenBabel11021811503D
libRbt.so/2013.1/901 2013/11/27
 12 13  0  0  0  0  0  0  0  0999 V2000
    6.6907   17.5726    1.8019 C   0  0  0  0  0  0  0  0  0  0  0  0
    5.3861   16.2936    3.2500 C   0  0  0  0  0  0  0  0  0  0  0  0
    7.1761   17.7710    0.5796 N   0  0  0  0  0  0  0  0  0  0  0  0
    4.6143   15.2372    3.5280 N   0  0  0  0  0  0  0  0  0  0  0  0
    5.9055   16.4976    2.0321 N   0  0  0  0  0  0  0  0  0  0  0  0
    6.9668   18.4597    2.7834 N   0  0  0  0  0  0  0  0  0  0  0  0
    5.4397   17.8873    6.5854 N   0  0  0  0  0  0  0  0  0  0  0  0
    6.2547   18.9955    6.3074 C   0  0  0  0  0  0  0  0  0  0  0  0
    6.7803   19.1782    5.0070 N   0  0  0  0  0  0  0  0  0  0  0  0
    6.4737   18.2913    4.0357 C   0  0  0  0  0  0  0  0  0  0  0  0
    5.6536   17.1881    4.2937 C   0  0  0  0  0  0  0  0  0  0  0  0
    5.1261   16.9680    5.5648 C   0  0  0  0  0  0  0  0  0  0  0  0
  1  3  1  0  0  0  0
  1  5  1  0  0  0  0
  1  6  2  0  0  0  0
  2  5  2  0  0  0  0
  2 11  1  0  0  0  0
  2  4  1  0  0  0  0
  6 10  1  0  0  0  0
  7  8  2  0  0  0  0
  7 12  1  0  0  0  0
  8  9  1  0  0  0  0
  9 10  2  0  0  0  0
 10 11  1  0  0  0  0
 11 12  2  0  0  0  0
M  END
>  <CHROM.1>
6.04726110,17.52656248,3.78379963,-1.31162679,0.94051917,1.14101569

>  <Name>
ligand

>  <RI>
0

>  <Rbt.Current_Directory>
/home/itssahil/PROJECTS/Mol_Feturizer/New_Systems/rnas/4LX5

>  <Rbt.Executable>
rbdock ($Id: //depot/dev/client3/rdock/2013.1/src/exe/rbdock.cxx#4 $)

>  <Rbt.Library>
libRbt.so (2013.1, Build901 2013/11/27)

>  <Rbt.Parameter_File>
/export/apps/rDock/src/rDock_2013.1_src/data/scripts/dock_solv.prm

>  <Rbt.Receptor>
prm/blind_docking_80.prm

>  <SCORE>
-14.1271

>  <SCORE.INTER>
-14.1271

>  <SCORE.INTER.CONST>
1

>  <SCORE.INTER.POLAR>
0

>  <SCORE.INTER.ROT>
0

>  <SCORE.INTER.SOLV>
19.2233

>  <SCORE.INTER.VDW>
-19.4259

>  <SCORE.INTER.norm>
-1.17726

>  <SCORE.INTRA>
0

>  <SCORE.INTRA.DIHEDRAL>
0

>  <SCORE.INTRA.DIHEDRAL.0>
0

>  <SCORE.INTRA.POLAR>
0

>  <SCORE.INTRA.POLAR.0>
0

>  <SCORE.INTRA.REPUL>
0

>  <SCORE.INTRA.REPUL.0>
0

>  <SCORE.INTRA.SOLV>
0

>  <SCORE.INTRA.SOLV.lig_0>
-48.1583

>  <SCORE.INTRA.VDW>
0

>  <SCORE.INTRA.VDW.0>
0

>  <SCORE.INTRA.norm>
0

>  <SCORE.RESTR>
0

>  <SCORE.RESTR.CAVITY>
0

>  <SCORE.RESTR.norm>
0

>  <SCORE.SYSTEM>
0

>  <SCORE.SYSTEM.CONST>
0

>  <SCORE.SYSTEM.DIHEDRAL>
0

>  <SCORE.SYSTEM.SOLV>
0

>  <SCORE.SYSTEM.norm>
0

>  <SCORE.heavy>
12

>  <SCORE.norm>
-1.17726

>  <RMSD>
0.479

$$$$
ligand
 OpenBabel11021811503D
libRbt.so/2013.1/901 2013/11/27
 12 13  0  0  0  0  0  0  0  0999 V2000
    6.7070   17.6508    1.7672 C   0  0  0  0  0  0  0  0  0  0  0  0
    5.4161   16.3624    3.2193 C   0  0  0  0  0  0  0  0  0  0  0  0
    7.1886   17.8518    0.5439 N   0  0  0  0  0  0  0  0  0  0  0  0
    4.6541   15.2996    3.5000 N   0  0  0  0  0  0  0  0  0  0  0  0
    5.9317   16.5693    2.0003 N   0  0  0  0  0  0  0  0  0  0  0  0
    6.9768   18.5418    2.7471 N   0  0  0  0  0  0  0  0  0  0  0  0
    5.4611   17.9613    6.5524 N   0  0  0  0  0  0  0  0  0  0  0  0
    6.2658   19.0762    6.2715 C   0  0  0  0  0  0  0  0  0  0  0  0
    6.7876   19.2617    4.9700 N   0  0  0  0  0  0  0  0  0  0  0  0
    6.4873   18.3707    4.0005 C   0  0  0  0  0  0  0  0  0  0  0  0
    5.6774   17.2607    4.2613 C   0  0  0  0  0  0  0  0  0  0  0  0
    5.1539   17.0378    5.5336 C   0  0  0  0  0  0  0  0  0  0  0  0
  1  3  1  0  0  0  0
  1  5  1  0  0  0  0
  1  6  2  0  0  0  0
  2  5  2  0  0  0  0
  2 11  1  0  0  0  0
  2  4  1  0  0  0  0
  6 10  1  0  0  0  0
  7  8  2  0  0  0  0
  7 12  1  0  0  0  0
  8  9  1  0  0  0  0
  9 10  2  0  0  0  0
 10 11  1  0  0  0  0
 11 12  2  0  0  0  0
M  END
>  <CHROM.1>
6.06723077,17.60192483,3.75027797,-1.30784689,0.94923593,1.13654647

>  <Name>
ligand

>  <RI>
0

>  <Rbt.Current_Directory>
/home/itssahil/PROJECTS/Mol_Feturizer/New_Systems/rnas/4LX5

>  <Rbt.Executable>
rbdock ($Id: //depot/dev/client3/rdock/2013.1/src/exe/rbdock.cxx#4 $)

>  <Rbt.Library>
libRbt.so (2013.1, Build901 2013/11/27)

>  <Rbt.Parameter_File>
/export/apps/rDock/src/rDock_2013.1_src/data/scripts/dock_solv.prm

>  <Rbt.Receptor>
prm/pocket_docking_6.prm

>  <SCORE>
-14.0602

>  <SCORE.INTER>
-14.0602

>  <SCORE.INTER.CONST>
1

>  <SCORE.INTER.POLAR>
0

>  <SCORE.INTER.ROT>
0

>  <SCORE.INTER.SOLV>
19.4075

>  <SCORE.INTER.VDW>
-19.4426

>  <SCORE.INTER.norm>
-1.17168

>  <SCORE.INTRA>
0

>  <SCORE.INTRA.DIHEDRAL>
0

>  <SCORE.INTRA.DIHEDRAL.0>
0

>  <SCORE.INTRA.POLAR>
0

>  <SCORE.INTRA.POLAR.0>
0

>  <SCORE.INTRA.REPUL>
0

>  <SCORE.INTRA.REPUL.0>
0

>  <SCORE.INTRA.SOLV>
0

>  <SCORE.INTRA.SOLV.lig_0>
-48.1583

>  <SCORE.INTRA.VDW>
0

>  <SCORE.INTRA.VDW.0>
0

>  <SCORE.INTRA.norm>
0

>  <SCORE.RESTR>
0

>  <SCORE.RESTR.CAVITY>
0

>  <SCORE.RESTR.norm>
0

>  <SCORE.SYSTEM>
0

>  <SCORE.SYSTEM.CONST>
0

>  <SCORE.SYSTEM.DIHEDRAL>
0

>  <SCORE.SYSTEM.SOLV>
0

>  <SCORE.SYSTEM.norm>
0

>  <SCORE.heavy>
12

>  <SCORE.norm>
-1.17168

>  <RMSD>
0.479

$$$$
ligand
 OpenBabel11021811503D
libRbt.so/2013.1/901 2013/11/27
 12 13  0  0  0  0  0  0  0  0999 V2000
    6.6873   17.5665    1.8041 C   0  0  0  0  0  0  0  0  0  0  0  0
    5.3794   16.2909    3.2522 C   0  0  0  0  0  0  0  0  0  0  0  0
    7.1750   17.7625    0.5824 N   0  0  0  0  0  0  0  0  0  0  0  0
    4.6066   15.2353    3.5307 N   0  0  0  0  0  0  0  0  0  0  0  0
    5.9011   16.4923    2.0349 N   0  0  0  0  0  0  0  0  0  0  0  0
    6.9618   18.4554    2.7845 N   0  0  0  0  0  0  0  0  0  0  0  0
    5.4273   17.8908    6.5847 N   0  0  0  0  0  0  0  0  0  0  0  0
    6.2433   18.9981    6.3061 C   0  0  0  0  0  0  0  0  0  0  0  0
    6.7714   19.1782    5.0064 N   0  0  0  0  0  0  0  0  0  0  0  0
    6.4662   18.2896    4.0362 C   0  0  0  0  0  0  0  0  0  0  0  0
    5.6452   17.1872    4.2947 C   0  0  0  0  0  0  0  0  0  0  0  0
    5.1152   16.9697    5.5652 C   0  0  0  0  0  0  0  0  0  0  0  0
  1  3  1  0  0  0  0
  1  5  1  0  0  0  0
  1  6  2  0  0  0  0
  2  5  2  0  0  0  0
  2 11  1  0  0  0  0
  2  4  1  0  0  0  0
  6 10  1  0  0  0  0
  7  8  2  0  0  0  0
  7 12  1  0  0  0  0
  8  9  1  0  0  0  0
  9 10  2  0  0  0  0
 10 11  1  0  0  0  0
 11 12  2  0  0  0  0
M  END
>  <CHROM.1>
6.03999180,17.52454363,3.78493270,-1.30898468,0.93935838,1.13699646

>  <Name>
ligand

>  <RI>
0

>  <Rbt.Current_Directory>
/home/itssahil/PROJECTS/Mol_Feturizer/New_Systems/rnas/4LX5

>  <Rbt.Executable>
rbdock ($Id: //depot/dev/client3/rdock/2013.1/src/exe/rbdock.cxx#4 $)

>  <Rbt.Library>
libRbt.so (2013.1, Build901 2013/11/27)

>  <Rbt.Parameter_File>
/export/apps/rDock/src/rDock_2013.1_src/data/scripts/dock_solv.prm

>  <Rbt.Receptor>
prm/blind_docking_40.prm

>  <SCORE>
-14.1319

>  <SCORE.INTER>
-14.1319

>  <SCORE.INTER.CONST>
1

>  <SCORE.INTER.POLAR>
0

>  <SCORE.INTER.ROT>
0

>  <SCORE.INTER.SOLV>
19.1984

>  <SCORE.INTER.VDW>
-19.4207

>  <SCORE.INTER.norm>
-1.17766

>  <SCORE.INTRA>
0

>  <SCORE.INTRA.DIHEDRAL>
0

>  <SCORE.INTRA.DIHEDRAL.0>
0

>  <SCORE.INTRA.POLAR>
0

>  <SCORE.INTRA.POLAR.0>
0

>  <SCORE.INTRA.REPUL>
0

>  <SCORE.INTRA.REPUL.0>
0

>  <SCORE.INTRA.SOLV>
0

>  <SCORE.INTRA.SOLV.lig_0>
-48.1583

>  <SCORE.INTRA.VDW>
0

>  <SCORE.INTRA.VDW.0>
0

>  <SCORE.INTRA.norm>
0

>  <SCORE.RESTR>
0

>  <SCORE.RESTR.CAVITY>
0

>  <SCORE.RESTR.norm>
0

>  <SCORE.SYSTEM>
0

>  <SCORE.SYSTEM.CONST>
0

>  <SCORE.SYSTEM.DIHEDRAL>
0

>  <SCORE.SYSTEM.SOLV>
0

>  <SCORE.SYSTEM.norm>
0

>  <SCORE.heavy>
12

>  <SCORE.norm>
-1.17766

>  <RMSD>
0.480

$$$$
ligand
 OpenBabel11021811503D
libRbt.so/2013.1/901 2013/11/27
 12 13  0  0  0  0  0  0  0  0999 V2000
    6.6280   17.5519    1.7922 C   0  0  0  0  0  0  0  0  0  0  0  0
    5.3399   16.2729    3.2550 C   0  0  0  0  0  0  0  0  0  0  0  0
    7.1025   17.7482    0.5654 N   0  0  0  0  0  0  0  0  0  0  0  0
    4.5741   15.2147    3.5426 N   0  0  0  0  0  0  0  0  0  0  0  0
    5.8485   16.4749    2.0322 N   0  0  0  0  0  0  0  0  0  0  0  0
    6.9090   18.4431    2.7687 N   0  0  0  0  0  0  0  0  0  0  0  0
    5.4154   17.8772    6.5849 N   0  0  0  0  0  0  0  0  0  0  0  0
    6.2242   18.9874    6.2967 C   0  0  0  0  0  0  0  0  0  0  0  0
    6.7384   19.1678    4.9915 N   0  0  0  0  0  0  0  0  0  0  0  0
    6.4268   18.2768    4.0255 C   0  0  0  0  0  0  0  0  0  0  0  0
    5.6128   17.1716    4.2937 C   0  0  0  0  0  0  0  0  0  0  0  0
    5.0966   16.9537    5.5698 C   0  0  0  0  0  0  0  0  0  0  0  0
  1  3  1  0  0  0  0
  1  5  1  0  0  0  0
  1  6  2  0  0  0  0
  2  5  2  0  0  0  0
  2 11  1  0  0  0  0
  2  4  1  0  0  0  0
  6 10  1  0  0  0  0
  7  8  2  0  0  0  0
  7 12  1  0  0  0  0
  8  9  1  0  0  0  0
  9 10  2  0  0  0  0
 10 11  1  0  0  0  0
 11 12  2  0  0  0  0
M  END
>  <CHROM.1>
6.00106622,17.50984426,3.77950464,-1.32195807,0.94712960,1.14627040

>  <Name>
ligand

>  <RI>
0

>  <Rbt.Current_Directory>
/home/itssahil/PROJECTS/Mol_Feturizer/New_Systems/rnas/4LX5

>  <Rbt.Executable>
rbdock ($Id: //depot/dev/client3/rdock/2013.1/src/exe/rbdock.cxx#4 $)

>  <Rbt.Library>
libRbt.so (2013.1, Build901 2013/11/27)

>  <Rbt.Parameter_File>
/export/apps/rDock/src/rDock_2013.1_src/data/scripts/dock_solv.prm

>  <Rbt.Receptor>
prm/pocket_docking_7.prm

>  <SCORE>
-14.0798

>  <SCORE.INTER>
-14.0798

>  <SCORE.INTER.CONST>
1

>  <SCORE.INTER.POLAR>
0

>  <SCORE.INTER.ROT>
0

>  <SCORE.INTER.SOLV>
19.0666

>  <SCORE.INTER.VDW>
-19.3421

>  <SCORE.INTER.norm>
-1.17331

>  <SCORE.INTRA>
0

>  <SCORE.INTRA.DIHEDRAL>
0

>  <SCORE.INTRA.DIHEDRAL.0>
0

>  <SCORE.INTRA.POLAR>
0

>  <SCORE.INTRA.POLAR.0>
0

>  <SCORE.INTRA.REPUL>
0

>  <SCORE.INTRA.REPUL.0>
0

>  <SCORE.INTRA.SOLV>
0

>  <SCORE.INTRA.SOLV.lig_0>
-48.1583

>  <SCORE.INTRA.VDW>
0

>  <SCORE.INTRA.VDW.0>
0

>  <SCORE.INTRA.norm>
0

>  <SCORE.RESTR>
0

>  <SCORE.RESTR.CAVITY>
0

>  <SCORE.RESTR.norm>
0

>  <SCORE.SYSTEM>
0

>  <SCORE.SYSTEM.CONST>
0

>  <SCORE.SYSTEM.DIHEDRAL>
0

>  <SCORE.SYSTEM.SOLV>
0

>  <SCORE.SYSTEM.norm>
0

>  <SCORE.heavy>
12

>  <SCORE.norm>
-1.17331

>  <RMSD>
0.481

$$$$
ligand
 OpenBabel11021811503D
libRbt.so/2013.1/901 2013/11/27
 12 13  0  0  0  0  0  0  0  0999 V2000
    6.6957   17.5669    1.8069 C   0  0  0  0  0  0  0  0  0  0  0  0
    5.3780   16.3005    3.2542 C   0  0  0  0  0  0  0  0  0  0  0  0
    7.1849   17.7600    0.5852 N   0  0  0  0  0  0  0  0  0  0  0  0
    4.5970   15.2508    3.5320 N   0  0  0  0  0  0  0  0  0  0  0  0
    5.9012   16.4988    2.0369 N   0  0  0  0  0  0  0  0  0  0  0  0
    6.9774   18.4529    2.7879 N   0  0  0  0  0  0  0  0  0  0  0  0
    5.4389   17.8975    6.5878 N   0  0  0  0  0  0  0  0  0  0  0  0
    6.2635   18.9986    6.3100 C   0  0  0  0  0  0  0  0  0  0  0  0
    6.7929   19.1754    5.0103 N   0  0  0  0  0  0  0  0  0  0  0  0
    6.4806   18.2900    4.0395 C   0  0  0  0  0  0  0  0  0  0  0  0
    5.6510   17.1939    4.2973 C   0  0  0  0  0  0  0  0  0  0  0  0
    5.1195   16.9797    5.5677 C   0  0  0  0  0  0  0  0  0  0  0  0
  1  3  1  0  0  0  0
  1  5  1  0  0  0  0
  1  6  2  0  0  0  0
  2  5  2  0  0  0  0
  2 11  1  0  0  0  0
  2  4  1  0  0  0  0
  6 10  1  0  0  0  0
  7  8  2  0  0  0  0
  7 12  1  0  0  0  0
  8  9  1  0  0  0  0
  9 10  2  0  0  0  0
 10 11  1  0  0  0  0
 11 12  2  0  0  0  0
M  END
>  <CHROM.1>
6.04838471,17.52854289,3.78770321,-1.31471357,0.93225634,1.14235480

>  <Name>
ligand

>  <RI>
0

>  <Rbt.Current_Directory>
/home/itssahil/PROJECTS/Mol_Feturizer/New_Systems/rnas/4LX5

>  <Rbt.Executable>
rbdock ($Id: //depot/dev/client3/rdock/2013.1/src/exe/rbdock.cxx#4 $)

>  <Rbt.Library>
libRbt.so (2013.1, Build901 2013/11/27)

>  <Rbt.Parameter_File>
/export/apps/rDock/src/rDock_2013.1_src/data/scripts/dock_solv.prm

>  <Rbt.Receptor>
prm/pocket_docking_6.prm

>  <SCORE>
-14.1279

>  <SCORE.INTER>
-14.1279

>  <SCORE.INTER.CONST>
1

>  <SCORE.INTER.POLAR>
0

>  <SCORE.INTER.ROT>
0

>  <SCORE.INTER.SOLV>
19.1489

>  <SCORE.INTER.VDW>
-19.4016

>  <SCORE.INTER.norm>
-1.17733

>  <SCORE.INTRA>
0

>  <SCORE.INTRA.DIHEDRAL>
0

>  <SCORE.INTRA.DIHEDRAL.0>
0

>  <SCORE.INTRA.POLAR>
0

>  <SCORE.INTRA.POLAR.0>
0

>  <SCORE.INTRA.REPUL>
0

>  <SCORE.INTRA.REPUL.0>
0

>  <SCORE.INTRA.SOLV>
0

>  <SCORE.INTRA.SOLV.lig_0>
-48.1583

>  <SCORE.INTRA.VDW>
0

>  <SCORE.INTRA.VDW.0>
0

>  <SCORE.INTRA.norm>
0

>  <SCORE.RESTR>
0

>  <SCORE.RESTR.CAVITY>
0

>  <SCORE.RESTR.norm>
0

>  <SCORE.SYSTEM>
0

>  <SCORE.SYSTEM.CONST>
0

>  <SCORE.SYSTEM.DIHEDRAL>
0

>  <SCORE.SYSTEM.SOLV>
0

>  <SCORE.SYSTEM.norm>
0

>  <SCORE.heavy>
12

>  <SCORE.norm>
-1.17733

>  <RMSD>
0.483

$$$$
ligand
 OpenBabel11021811503D
libRbt.so/2013.1/901 2013/11/27
 12 13  0  0  0  0  0  0  0  0999 V2000
    6.7167   17.5732    1.8160 C   0  0  0  0  0  0  0  0  0  0  0  0
    5.3834   16.3065    3.2487 C   0  0  0  0  0  0  0  0  0  0  0  0
    7.2156   17.7689    0.5988 N   0  0  0  0  0  0  0  0  0  0  0  0
    4.5963   15.2588    3.5168 N   0  0  0  0  0  0  0  0  0  0  0  0
    5.9164   16.5072    2.0362 N   0  0  0  0  0  0  0  0  0  0  0  0
    6.9945   18.4543    2.8025 N   0  0  0  0  0  0  0  0  0  0  0  0
    5.4258   17.8907    6.5888 N   0  0  0  0  0  0  0  0  0  0  0  0
    6.2568   18.9895    6.3213 C   0  0  0  0  0  0  0  0  0  0  0  0
    6.7964   19.1692    5.0262 N   0  0  0  0  0  0  0  0  0  0  0  0
    6.4879   18.2886    4.0498 C   0  0  0  0  0  0  0  0  0  0  0  0
    5.6522   17.1949    4.2973 C   0  0  0  0  0  0  0  0  0  0  0  0
    5.1104   16.9779    5.5629 C   0  0  0  0  0  0  0  0  0  0  0  0
  1  3  1  0  0  0  0
  1  5  1  0  0  0  0
  1  6  2  0  0  0  0
  2  5  2  0  0  0  0
  2 11  1  0  0  0  0
  2  4  1  0  0  0  0
  6 10  1  0  0  0  0
  7  8  2  0  0  0  0
  7 12  1  0  0  0  0
  8  9  1  0  0  0  0
  9 10  2  0  0  0  0
 10 11  1  0  0  0  0
 11 12  2  0  0  0  0
M  END
>  <CHROM.1>
6.05459645,17.52984182,3.79188316,-1.30620657,0.92562759,1.13932677

>  <Name>
ligand

>  <RI>
0

>  <Rbt.Current_Directory>
/home/itssahil/PROJECTS/Mol_Feturizer/New_Systems/rnas/4LX5

>  <Rbt.Executable>
rbdock ($Id: //depot/dev/client3/rdock/2013.1/src/exe/rbdock.cxx#4 $)

>  <Rbt.Library>
libRbt.so (2013.1, Build901 2013/11/27)

>  <Rbt.Parameter_File>
/export/apps/rDock/src/rDock_2013.1_src/data/scripts/dock_solv.prm

>  <Rbt.Receptor>
prm/pocket_docking_6.prm

>  <SCORE>
-14.1152

>  <SCORE.INTER>
-14.1152

>  <SCORE.INTER.CONST>
1

>  <SCORE.INTER.POLAR>
0

>  <SCORE.INTER.ROT>
0

>  <SCORE.INTER.SOLV>
19.1575

>  <SCORE.INTER.VDW>
-19.396

>  <SCORE.INTER.norm>
-1.17627

>  <SCORE.INTRA>
0

>  <SCORE.INTRA.DIHEDRAL>
0

>  <SCORE.INTRA.DIHEDRAL.0>
0

>  <SCORE.INTRA.POLAR>
0

>  <SCORE.INTRA.POLAR.0>
0

>  <SCORE.INTRA.REPUL>
0

>  <SCORE.INTRA.REPUL.0>
0

>  <SCORE.INTRA.SOLV>
0

>  <SCORE.INTRA.SOLV.lig_0>
-48.1583

>  <SCORE.INTRA.VDW>
0

>  <SCORE.INTRA.VDW.0>
0

>  <SCORE.INTRA.norm>
0

>  <SCORE.RESTR>
0

>  <SCORE.RESTR.CAVITY>
0

>  <SCORE.RESTR.norm>
0

>  <SCORE.SYSTEM>
0

>  <SCORE.SYSTEM.CONST>
0

>  <SCORE.SYSTEM.DIHEDRAL>
0

>  <SCORE.SYSTEM.SOLV>
0

>  <SCORE.SYSTEM.norm>
0

>  <SCORE.heavy>
12

>  <SCORE.norm>
-1.17627

>  <RMSD>
0.483

$$$$
ligand
 OpenBabel11021811503D
libRbt.so/2013.1/901 2013/11/27
 12 13  0  0  0  0  0  0  0  0999 V2000
    6.7742   17.4023    1.8223 C   0  0  0  0  0  0  0  0  0  0  0  0
    5.4137   16.2136    3.2957 C   0  0  0  0  0  0  0  0  0  0  0  0
    7.2926   17.5350    0.6047 N   0  0  0  0  0  0  0  0  0  0  0  0
    4.6180   15.1835    3.6035 N   0  0  0  0  0  0  0  0  0  0  0  0
    5.9660   16.3516    2.0830 N   0  0  0  0  0  0  0  0  0  0  0  0
    7.0407   18.3307    2.7677 N   0  0  0  0  0  0  0  0  0  0  0  0
    5.4118   17.9629    6.5527 N   0  0  0  0  0  0  0  0  0  0  0  0
    6.2515   19.0440    6.2434 C   0  0  0  0  0  0  0  0  0  0  0  0
    6.8117   19.1567    4.9495 N   0  0  0  0  0  0  0  0  0  0  0  0
    6.5144   18.2295    4.0137 C   0  0  0  0  0  0  0  0  0  0  0  0
    5.6702   17.1524    4.3026 C   0  0  0  0  0  0  0  0  0  0  0  0
    5.1082   17.0011    5.5689 C   0  0  0  0  0  0  0  0  0  0  0  0
  1  3  1  0  0  0  0
  1  5  1  0  0  0  0
  1  6  2  0  0  0  0
  2  5  2  0  0  0  0
  2 11  1  0  0  0  0
  2  4  1  0  0  0  0
  6 10  1  0  0  0  0
  7  8  2  0  0  0  0
  7 12  1  0  0  0  0
  8  9  1  0  0  0  0
  9 10  2  0  0  0  0
 10 11  1  0  0  0  0
 11 12  2  0  0  0  0
M  END
>  <CHROM.1>
6.08175563,17.46026589,3.78736296,-1.28636979,0.91518294,1.07348921

>  <Name>
ligand

>  <RI>
0

>  <Rbt.Current_Directory>
/home/itssahil/PROJECTS/Mol_Feturizer/New_Systems/rnas/4LX5

>  <Rbt.Executable>
rbdock ($Id: //depot/dev/client3/rdock/2013.1/src/exe/rbdock.cxx#4 $)

>  <Rbt.Library>
libRbt.so (2013.1, Build901 2013/11/27)

>  <Rbt.Parameter_File>
/export/apps/rDock/src/rDock_2013.1_src/data/scripts/dock_solv.prm

>  <Rbt.Receptor>
prm/pocket_docking_7.prm

>  <SCORE>
-14.1027

>  <SCORE.INTER>
-14.1027

>  <SCORE.INTER.CONST>
1

>  <SCORE.INTER.POLAR>
0

>  <SCORE.INTER.ROT>
0

>  <SCORE.INTER.SOLV>
19.6182

>  <SCORE.INTER.VDW>
-19.5412

>  <SCORE.INTER.norm>
-1.17523

>  <SCORE.INTRA>
0

>  <SCORE.INTRA.DIHEDRAL>
0

>  <SCORE.INTRA.DIHEDRAL.0>
0

>  <SCORE.INTRA.POLAR>
0

>  <SCORE.INTRA.POLAR.0>
0

>  <SCORE.INTRA.REPUL>
0

>  <SCORE.INTRA.REPUL.0>
0

>  <SCORE.INTRA.SOLV>
0

>  <SCORE.INTRA.SOLV.lig_0>
-48.1583

>  <SCORE.INTRA.VDW>
0

>  <SCORE.INTRA.VDW.0>
0

>  <SCORE.INTRA.norm>
0

>  <SCORE.RESTR>
0

>  <SCORE.RESTR.CAVITY>
0

>  <SCORE.RESTR.norm>
0

>  <SCORE.SYSTEM>
0

>  <SCORE.SYSTEM.CONST>
0

>  <SCORE.SYSTEM.DIHEDRAL>
0

>  <SCORE.SYSTEM.SOLV>
0

>  <SCORE.SYSTEM.norm>
0

>  <SCORE.heavy>
12

>  <SCORE.norm>
-1.17523

>  <RMSD>
0.487

$$$$
ligand
 OpenBabel11021811503D
libRbt.so/2013.1/901 2013/11/27
 12 13  0  0  0  0  0  0  0  0999 V2000
    6.5204   17.5173    1.7341 C   0  0  0  0  0  0  0  0  0  0  0  0
    5.2015   16.3252    3.2422 C   0  0  0  0  0  0  0  0  0  0  0  0
    6.9660   17.6816    0.4918 N   0  0  0  0  0  0  0  0  0  0  0  0
    4.3791   15.3187    3.5579 N   0  0  0  0  0  0  0  0  0  0  0  0
    5.6815   16.4930    2.0028 N   0  0  0  0  0  0  0  0  0  0  0  0
    6.8902   18.3893    2.6982 N   0  0  0  0  0  0  0  0  0  0  0  0
    5.4898   17.9240    6.5631 N   0  0  0  0  0  0  0  0  0  0  0  0
    6.3585   18.9794    6.2453 C   0  0  0  0  0  0  0  0  0  0  0  0
    6.8399   19.1253    4.9233 N   0  0  0  0  0  0  0  0  0  0  0  0
    6.4400   18.2555    3.9708 C   0  0  0  0  0  0  0  0  0  0  0  0
    5.5658   17.2052    4.2687 C   0  0  0  0  0  0  0  0  0  0  0  0
    5.0789   17.0221    5.5617 C   0  0  0  0  0  0  0  0  0  0  0  0
  1  3  1  0  0  0  0
  1  5  1  0  0  0  0
  1  6  2  0  0  0  0
  2  5  2  0  0  0  0
  2 11  1  0  0  0  0
  2  4  1  0  0  0  0
  6 10  1  0  0  0  0
  7  8  2  0  0  0  0
  7 12  1  0  0  0  0
  8  9  1  0  0  0  0
  9 10  2  0  0  0  0
 10 11  1  0  0  0  0
 11 12  2  0  0  0  0
M  END
>  <CHROM.1>
5.95789325,17.51733780,3.74107102,-1.41302873,0.89992032,1.21708614

>  <Name>
ligand

>  <RI>
0

>  <Rbt.Current_Directory>
/home/itssahil/PROJECTS/Mol_Feturizer/New_Systems/rnas/4LX5

>  <Rbt.Executable>
rbdock ($Id: //depot/dev/client3/rdock/2013.1/src/exe/rbdock.cxx#4 $)

>  <Rbt.Library>
libRbt.so (2013.1, Build901 2013/11/27)

>  <Rbt.Parameter_File>
/export/apps/rDock/src/rDock_2013.1_src/data/scripts/dock_solv.prm

>  <Rbt.Receptor>
prm/pocket_docking_7.prm

>  <SCORE>
-14.0027

>  <SCORE.INTER>
-14.0027

>  <SCORE.INTER.CONST>
1

>  <SCORE.INTER.POLAR>
0

>  <SCORE.INTER.ROT>
0

>  <SCORE.INTER.SOLV>
18.0881

>  <SCORE.INTER.VDW>
-18.9645

>  <SCORE.INTER.norm>
-1.16689

>  <SCORE.INTRA>
0

>  <SCORE.INTRA.DIHEDRAL>
0

>  <SCORE.INTRA.DIHEDRAL.0>
0

>  <SCORE.INTRA.POLAR>
0

>  <SCORE.INTRA.POLAR.0>
0

>  <SCORE.INTRA.REPUL>
0

>  <SCORE.INTRA.REPUL.0>
0

>  <SCORE.INTRA.SOLV>
0

>  <SCORE.INTRA.SOLV.lig_0>
-48.1583

>  <SCORE.INTRA.VDW>
0

>  <SCORE.INTRA.VDW.0>
0

>  <SCORE.INTRA.norm>
0

>  <SCORE.RESTR>
0

>  <SCORE.RESTR.CAVITY>
0

>  <SCORE.RESTR.norm>
0

>  <SCORE.SYSTEM>
0

>  <SCORE.SYSTEM.CONST>
0

>  <SCORE.SYSTEM.DIHEDRAL>
0

>  <SCORE.SYSTEM.SOLV>
0

>  <SCORE.SYSTEM.norm>
0

>  <SCORE.heavy>
12

>  <SCORE.norm>
-1.16689

>  <RMSD>
0.487

$$$$
ligand
 OpenBabel11021811503D
libRbt.so/2013.1/901 2013/11/27
 12 13  0  0  0  0  0  0  0  0999 V2000
    6.5258   17.5140    1.7384 C   0  0  0  0  0  0  0  0  0  0  0  0
    5.2110   16.3211    3.2494 C   0  0  0  0  0  0  0  0  0  0  0  0
    6.9705   17.6771    0.4956 N   0  0  0  0  0  0  0  0  0  0  0  0
    4.3918   15.3128    3.5675 N   0  0  0  0  0  0  0  0  0  0  0  0
    5.6902   16.4877    2.0095 N   0  0  0  0  0  0  0  0  0  0  0  0
    6.8931   18.3894    2.7005 N   0  0  0  0  0  0  0  0  0  0  0  0
    5.4950   17.9282    6.5667 N   0  0  0  0  0  0  0  0  0  0  0  0
    6.3602   18.9856    6.2463 C   0  0  0  0  0  0  0  0  0  0  0  0
    6.8409   19.1301    4.9239 N   0  0  0  0  0  0  0  0  0  0  0  0
    6.4435   18.2569    3.9734 C   0  0  0  0  0  0  0  0  0  0  0  0
    5.5727   17.2046    4.2739 C   0  0  0  0  0  0  0  0  0  0  0  0
    5.0867   17.0227    5.5673 C   0  0  0  0  0  0  0  0  0  0  0  0
  1  3  1  0  0  0  0
  1  5  1  0  0  0  0
  1  6  2  0  0  0  0
  2  5  2  0  0  0  0
  2 11  1  0  0  0  0
  2  4  1  0  0  0  0
  6 10  1  0  0  0  0
  7  8  2  0  0  0  0
  7 12  1  0  0  0  0
  8  9  1  0  0  0  0
  9 10  2  0  0  0  0
 10 11  1  0  0  0  0
 11 12  2  0  0  0  0
M  END
>  <CHROM.1>
5.96369140,17.51675764,3.74544633,-1.41159336,0.90295860,1.21374716

>  <Name>
ligand

>  <RI>
0

>  <Rbt.Current_Directory>
/home/itssahil/PROJECTS/Mol_Feturizer/New_Systems/rnas/4LX5

>  <Rbt.Executable>
rbdock ($Id: //depot/dev/client3/rdock/2013.1/src/exe/rbdock.cxx#4 $)

>  <Rbt.Library>
libRbt.so (2013.1, Build901 2013/11/27)

>  <Rbt.Parameter_File>
/export/apps/rDock/src/rDock_2013.1_src/data/scripts/dock_solv.prm

>  <Rbt.Receptor>
prm/blind_docking_100.prm

>  <SCORE>
-14.0021

>  <SCORE.INTER>
-14.0021

>  <SCORE.INTER.CONST>
1

>  <SCORE.INTER.POLAR>
0

>  <SCORE.INTER.ROT>
0

>  <SCORE.INTER.SOLV>
18.1401

>  <SCORE.INTER.VDW>
-18.9815

>  <SCORE.INTER.norm>
-1.16685

>  <SCORE.INTRA>
0

>  <SCORE.INTRA.DIHEDRAL>
0

>  <SCORE.INTRA.DIHEDRAL.0>
0

>  <SCORE.INTRA.POLAR>
0

>  <SCORE.INTRA.POLAR.0>
0

>  <SCORE.INTRA.REPUL>
0

>  <SCORE.INTRA.REPUL.0>
0

>  <SCORE.INTRA.SOLV>
0

>  <SCORE.INTRA.SOLV.lig_0>
-48.1583

>  <SCORE.INTRA.VDW>
0

>  <SCORE.INTRA.VDW.0>
0

>  <SCORE.INTRA.norm>
0

>  <SCORE.RESTR>
0

>  <SCORE.RESTR.CAVITY>
0

>  <SCORE.RESTR.norm>
0

>  <SCORE.SYSTEM>
0

>  <SCORE.SYSTEM.CONST>
0

>  <SCORE.SYSTEM.DIHEDRAL>
0

>  <SCORE.SYSTEM.SOLV>
0

>  <SCORE.SYSTEM.norm>
0

>  <SCORE.heavy>
12

>  <SCORE.norm>
-1.16685

>  <RMSD>
0.489

$$$$
ligand
 OpenBabel11021811503D
libRbt.so/2013.1/901 2013/11/27
 12 13  0  0  0  0  0  0  0  0999 V2000
    6.7767   17.3892    1.8430 C   0  0  0  0  0  0  0  0  0  0  0  0
    5.3816   16.2095    3.2910 C   0  0  0  0  0  0  0  0  0  0  0  0
    7.3087   17.5255    0.6317 N   0  0  0  0  0  0  0  0  0  0  0  0
    4.5650   15.1904    3.5805 N   0  0  0  0  0  0  0  0  0  0  0  0
    5.9476   16.3503    2.0850 N   0  0  0  0  0  0  0  0  0  0  0  0
    7.0505   18.3028    2.8005 N   0  0  0  0  0  0  0  0  0  0  0  0
    5.3798   17.9243    6.5662 N   0  0  0  0  0  0  0  0  0  0  0  0
    6.2412   18.9936    6.2762 C   0  0  0  0  0  0  0  0  0  0  0  0
    6.8155   19.1099    4.9889 N   0  0  0  0  0  0  0  0  0  0  0  0
    6.5107   18.1979    4.0405 C   0  0  0  0  0  0  0  0  0  0  0  0
    5.6450   17.1330    4.3101 C   0  0  0  0  0  0  0  0  0  0  0  0
    5.0685   16.9784    5.5695 C   0  0  0  0  0  0  0  0  0  0  0  0
  1  3  1  0  0  0  0
  1  5  1  0  0  0  0
  1  6  2  0  0  0  0
  2  5  2  0  0  0  0
  2 11  1  0  0  0  0
  2  4  1  0  0  0  0
  6 10  1  0  0  0  0
  7  8  2  0  0  0  0
  7 12  1  0  0  0  0
  8  9  1  0  0  0  0
  9 10  2  0  0  0  0
 10 11  1  0  0  0  0
 11 12  2  0  0  0  0
M  END
>  <CHROM.1>
6.06680749,17.43887084,3.80202621,-1.28652754,0.89522988,1.08415907

>  <Name>
ligand

>  <RI>
0

>  <Rbt.Current_Directory>
/home/itssahil/PROJECTS/Mol_Feturizer/New_Systems/rnas/4LX5

>  <Rbt.Executable>
rbdock ($Id: //depot/dev/client3/rdock/2013.1/src/exe/rbdock.cxx#4 $)

>  <Rbt.Library>
libRbt.so (2013.1, Build901 2013/11/27)

>  <Rbt.Parameter_File>
/export/apps/rDock/src/rDock_2013.1_src/data/scripts/dock_solv.prm

>  <Rbt.Receptor>
prm/pocket_docking_5.prm

>  <SCORE>
-14.0948

>  <SCORE.INTER>
-14.0948

>  <SCORE.INTER.CONST>
1

>  <SCORE.INTER.POLAR>
0

>  <SCORE.INTER.ROT>
0

>  <SCORE.INTER.SOLV>
19.453

>  <SCORE.INTER.VDW>
-19.4809

>  <SCORE.INTER.norm>
-1.17457

>  <SCORE.INTRA>
0

>  <SCORE.INTRA.DIHEDRAL>
0

>  <SCORE.INTRA.DIHEDRAL.0>
0

>  <SCORE.INTRA.POLAR>
0

>  <SCORE.INTRA.POLAR.0>
0

>  <SCORE.INTRA.REPUL>
0

>  <SCORE.INTRA.REPUL.0>
0

>  <SCORE.INTRA.SOLV>
0

>  <SCORE.INTRA.SOLV.lig_0>
-48.1583

>  <SCORE.INTRA.VDW>
0

>  <SCORE.INTRA.VDW.0>
0

>  <SCORE.INTRA.norm>
0

>  <SCORE.RESTR>
0

>  <SCORE.RESTR.CAVITY>
0

>  <SCORE.RESTR.norm>
0

>  <SCORE.SYSTEM>
0

>  <SCORE.SYSTEM.CONST>
0

>  <SCORE.SYSTEM.DIHEDRAL>
0

>  <SCORE.SYSTEM.SOLV>
0

>  <SCORE.SYSTEM.norm>
0

>  <SCORE.heavy>
12

>  <SCORE.norm>
-1.17457

>  <RMSD>
0.489

$$$$
ligand
 OpenBabel11021811503D
libRbt.so/2013.1/901 2013/11/27
 12 13  0  0  0  0  0  0  0  0999 V2000
    6.7756   17.4024    1.8224 C   0  0  0  0  0  0  0  0  0  0  0  0
    5.4167   16.2176    3.3003 C   0  0  0  0  0  0  0  0  0  0  0  0
    7.2916   17.5328    0.6035 N   0  0  0  0  0  0  0  0  0  0  0  0
    4.6205   15.1888    3.6114 N   0  0  0  0  0  0  0  0  0  0  0  0
    5.9667   16.3531    2.0863 N   0  0  0  0  0  0  0  0  0  0  0  0
    7.0451   18.3320    2.7657 N   0  0  0  0  0  0  0  0  0  0  0  0
    5.4236   17.9717    6.5547 N   0  0  0  0  0  0  0  0  0  0  0  0
    6.2639   19.0514    6.2421 C   0  0  0  0  0  0  0  0  0  0  0  0
    6.8216   19.1615    4.9468 N   0  0  0  0  0  0  0  0  0  0  0  0
    6.5212   18.2332    4.0130 C   0  0  0  0  0  0  0  0  0  0  0  0
    5.6764   17.1576    4.3052 C   0  0  0  0  0  0  0  0  0  0  0  0
    5.1168   17.0088    5.5729 C   0  0  0  0  0  0  0  0  0  0  0  0
  1  3  1  0  0  0  0
  1  5  1  0  0  0  0
  1  6  2  0  0  0  0
  2  5  2  0  0  0  0
  2 11  1  0  0  0  0
  2  4  1  0  0  0  0
  6 10  1  0  0  0  0
  7  8  2  0  0  0  0
  7 12  1  0  0  0  0
  8  9  1  0  0  0  0
  9 10  2  0  0  0  0
 10 11  1  0  0  0  0
 11 12  2  0  0  0  0
M  END
>  <CHROM.1>
6.08725366,17.46418526,3.78872897,-1.29023803,0.91516589,1.07505356

>  <Name>
ligand

>  <RI>
0

>  <Rbt.Current_Directory>
/home/itssahil/PROJECTS/Mol_Feturizer/New_Systems/rnas/4LX5

>  <Rbt.Executable>
rbdock ($Id: //depot/dev/client3/rdock/2013.1/src/exe/rbdock.cxx#4 $)

>  <Rbt.Library>
libRbt.so (2013.1, Build901 2013/11/27)

>  <Rbt.Parameter_File>
/export/apps/rDock/src/rDock_2013.1_src/data/scripts/dock_solv.prm

>  <Rbt.Receptor>
prm/pocket_docking_8.prm

>  <SCORE>
-14.0782

>  <SCORE.INTER>
-14.0782

>  <SCORE.INTER.CONST>
1

>  <SCORE.INTER.POLAR>
0

>  <SCORE.INTER.ROT>
0

>  <SCORE.INTER.SOLV>
19.6233

>  <SCORE.INTER.VDW>
-19.5266

>  <SCORE.INTER.norm>
-1.17319

>  <SCORE.INTRA>
0

>  <SCORE.INTRA.DIHEDRAL>
0

>  <SCORE.INTRA.DIHEDRAL.0>
0

>  <SCORE.INTRA.POLAR>
0

>  <SCORE.INTRA.POLAR.0>
0

>  <SCORE.INTRA.REPUL>
0

>  <SCORE.INTRA.REPUL.0>
0

>  <SCORE.INTRA.SOLV>
0

>  <SCORE.INTRA.SOLV.lig_0>
-48.1583

>  <SCORE.INTRA.VDW>
0

>  <SCORE.INTRA.VDW.0>
0

>  <SCORE.INTRA.norm>
0

>  <SCORE.RESTR>
0

>  <SCORE.RESTR.CAVITY>
0

>  <SCORE.RESTR.norm>
0

>  <SCORE.SYSTEM>
0

>  <SCORE.SYSTEM.CONST>
0

>  <SCORE.SYSTEM.DIHEDRAL>
0

>  <SCORE.SYSTEM.SOLV>
0

>  <SCORE.SYSTEM.norm>
0

>  <SCORE.heavy>
12

>  <SCORE.norm>
-1.17319

>  <RMSD>
0.490

$$$$
ligand
 OpenBabel11021811503D
libRbt.so/2013.1/901 2013/11/27
 12 13  0  0  0  0  0  0  0  0999 V2000
    6.7254   17.3945    1.8275 C   0  0  0  0  0  0  0  0  0  0  0  0
    5.3716   16.2106    3.3110 C   0  0  0  0  0  0  0  0  0  0  0  0
    7.2361   17.5247    0.6065 N   0  0  0  0  0  0  0  0  0  0  0  0
    4.5756   15.1826    3.6251 N   0  0  0  0  0  0  0  0  0  0  0  0
    5.9164   16.3459    2.0946 N   0  0  0  0  0  0  0  0  0  0  0  0
    7.0000   18.3234    2.7701 N   0  0  0  0  0  0  0  0  0  0  0  0
    5.3947   17.9634    6.5659 N   0  0  0  0  0  0  0  0  0  0  0  0
    6.2348   19.0423    6.2501 C   0  0  0  0  0  0  0  0  0  0  0  0
    6.7869   19.1522    4.9525 N   0  0  0  0  0  0  0  0  0  0  0  0
    6.4815   18.2247    4.0196 C   0  0  0  0  0  0  0  0  0  0  0  0
    5.6367   17.1499    4.3151 C   0  0  0  0  0  0  0  0  0  0  0  0
    5.0825   17.0012    5.5852 C   0  0  0  0  0  0  0  0  0  0  0  0
  1  3  1  0  0  0  0
  1  5  1  0  0  0  0
  1  6  2  0  0  0  0
  2  5  2  0  0  0  0
  2 11  1  0  0  0  0
  2  4  1  0  0  0  0
  6 10  1  0  0  0  0
  7  8  2  0  0  0  0
  7 12  1  0  0  0  0
  8  9  1  0  0  0  0
  9 10  2  0  0  0  0
 10 11  1  0  0  0  0
 11 12  2  0  0  0  0
M  END
>  <CHROM.1>
6.04566675,17.45621133,3.79692279,-1.29743395,0.91624431,1.08115500

>  <Name>
ligand

>  <RI>
0

>  <Rbt.Current_Directory>
/home/itssahil/PROJECTS/Mol_Feturizer/New_Systems/rnas/4LX5

>  <Rbt.Executable>
rbdock ($Id: //depot/dev/client3/rdock/2013.1/src/exe/rbdock.cxx#4 $)

>  <Rbt.Library>
libRbt.so (2013.1, Build901 2013/11/27)

>  <Rbt.Parameter_File>
/export/apps/rDock/src/rDock_2013.1_src/data/scripts/dock_solv.prm

>  <Rbt.Receptor>
prm/blind_docking_100.prm

>  <SCORE>
-14.014

>  <SCORE.INTER>
-14.014

>  <SCORE.INTER.CONST>
1

>  <SCORE.INTER.POLAR>
0

>  <SCORE.INTER.ROT>
0

>  <SCORE.INTER.SOLV>
19.4235

>  <SCORE.INTER.VDW>
-19.4171

>  <SCORE.INTER.norm>
-1.16783

>  <SCORE.INTRA>
0

>  <SCORE.INTRA.DIHEDRAL>
0

>  <SCORE.INTRA.DIHEDRAL.0>
0

>  <SCORE.INTRA.POLAR>
0

>  <SCORE.INTRA.POLAR.0>
0

>  <SCORE.INTRA.REPUL>
0

>  <SCORE.INTRA.REPUL.0>
0

>  <SCORE.INTRA.SOLV>
0

>  <SCORE.INTRA.SOLV.lig_0>
-48.1583

>  <SCORE.INTRA.VDW>
0

>  <SCORE.INTRA.VDW.0>
0

>  <SCORE.INTRA.norm>
0

>  <SCORE.RESTR>
0

>  <SCORE.RESTR.CAVITY>
0

>  <SCORE.RESTR.norm>
0

>  <SCORE.SYSTEM>
0

>  <SCORE.SYSTEM.CONST>
0

>  <SCORE.SYSTEM.DIHEDRAL>
0

>  <SCORE.SYSTEM.SOLV>
0

>  <SCORE.SYSTEM.norm>
0

>  <SCORE.heavy>
12

>  <SCORE.norm>
-1.16783

>  <RMSD>
0.499

$$$$
ligand
 OpenBabel11021811503D
libRbt.so/2013.1/901 2013/11/27
 12 13  0  0  0  0  0  0  0  0999 V2000
    6.7070   17.5835    1.7848 C   0  0  0  0  0  0  0  0  0  0  0  0
    5.4075   16.3410    3.2688 C   0  0  0  0  0  0  0  0  0  0  0  0
    7.1827   17.7552    0.5547 N   0  0  0  0  0  0  0  0  0  0  0  0
    4.6317   15.2950    3.5740 N   0  0  0  0  0  0  0  0  0  0  0  0
    5.9173   16.5181    2.0427 N   0  0  0  0  0  0  0  0  0  0  0  0
    6.9971   18.4877    2.7464 N   0  0  0  0  0  0  0  0  0  0  0  0
    5.5002   17.9986    6.5720 N   0  0  0  0  0  0  0  0  0  0  0  0
    6.3195   19.0961    6.2654 C   0  0  0  0  0  0  0  0  0  0  0  0
    6.8346   19.2503    4.9572 N   0  0  0  0  0  0  0  0  0  0  0  0
    6.5140   18.3466    4.0061 C   0  0  0  0  0  0  0  0  0  0  0  0
    5.6896   17.2538    4.2926 C   0  0  0  0  0  0  0  0  0  0  0  0
    5.1720   17.0617    5.5722 C   0  0  0  0  0  0  0  0  0  0  0  0
  1  3  1  0  0  0  0
  1  5  1  0  0  0  0
  1  6  2  0  0  0  0
  2  5  2  0  0  0  0
  2 11  1  0  0  0  0
  2  4  1  0  0  0  0
  6 10  1  0  0  0  0
  7  8  2  0  0  0  0
  7 12  1  0  0  0  0
  8  9  1  0  0  0  0
  9 10  2  0  0  0  0
 10 11  1  0  0  0  0
 11 12  2  0  0  0  0
M  END
>  <CHROM.1>
6.08079152,17.57987478,3.77274620,-1.32949813,0.93860748,1.13604457

>  <Name>
ligand

>  <RI>
0

>  <Rbt.Current_Directory>
/home/itssahil/PROJECTS/Mol_Feturizer/New_Systems/rnas/4LX5

>  <Rbt.Executable>
rbdock ($Id: //depot/dev/client3/rdock/2013.1/src/exe/rbdock.cxx#4 $)

>  <Rbt.Library>
libRbt.so (2013.1, Build901 2013/11/27)

>  <Rbt.Parameter_File>
/export/apps/rDock/src/rDock_2013.1_src/data/scripts/dock_solv.prm

>  <Rbt.Receptor>
prm/pocket_docking_3.prm

>  <SCORE>
-13.954

>  <SCORE.INTER>
-13.954

>  <SCORE.INTER.CONST>
1

>  <SCORE.INTER.POLAR>
0

>  <SCORE.INTER.ROT>
0

>  <SCORE.INTER.SOLV>
19.2169

>  <SCORE.INTER.VDW>
-19.3083

>  <SCORE.INTER.norm>
-1.16283

>  <SCORE.INTRA>
0

>  <SCORE.INTRA.DIHEDRAL>
0

>  <SCORE.INTRA.DIHEDRAL.0>
0

>  <SCORE.INTRA.POLAR>
0

>  <SCORE.INTRA.POLAR.0>
0

>  <SCORE.INTRA.REPUL>
0

>  <SCORE.INTRA.REPUL.0>
0

>  <SCORE.INTRA.SOLV>
0

>  <SCORE.INTRA.SOLV.lig_0>
-48.1583

>  <SCORE.INTRA.VDW>
0

>  <SCORE.INTRA.VDW.0>
0

>  <SCORE.INTRA.norm>
0

>  <SCORE.RESTR>
0

>  <SCORE.RESTR.CAVITY>
0

>  <SCORE.RESTR.norm>
0

>  <SCORE.SYSTEM>
0

>  <SCORE.SYSTEM.CONST>
0

>  <SCORE.SYSTEM.DIHEDRAL>
0

>  <SCORE.SYSTEM.SOLV>
0

>  <SCORE.SYSTEM.norm>
0

>  <SCORE.heavy>
12

>  <SCORE.norm>
-1.16283

>  <RMSD>
0.500

$$$$
ligand
 OpenBabel11021811503D
libRbt.so/2013.1/901 2013/11/27
 12 13  0  0  0  0  0  0  0  0999 V2000
    6.6296   17.6270    1.7836 C   0  0  0  0  0  0  0  0  0  0  0  0
    5.3676   16.3580    3.2775 C   0  0  0  0  0  0  0  0  0  0  0  0
    7.0879   17.8113    0.5487 N   0  0  0  0  0  0  0  0  0  0  0  0
    4.6123   15.2985    3.5873 N   0  0  0  0  0  0  0  0  0  0  0  0
    5.8601   16.5481    2.0462 N   0  0  0  0  0  0  0  0  0  0  0  0
    6.9165   18.5320    2.7456 N   0  0  0  0  0  0  0  0  0  0  0  0
    5.4728   18.0037    6.5863 N   0  0  0  0  0  0  0  0  0  0  0  0
    6.2708   19.1153    6.2748 C   0  0  0  0  0  0  0  0  0  0  0  0
    6.7679   19.2829    4.9612 N   0  0  0  0  0  0  0  0  0  0  0  0
    6.4506   18.3781    4.0101 C   0  0  0  0  0  0  0  0  0  0  0  0
    5.6471   17.2711    4.3017 C   0  0  0  0  0  0  0  0  0  0  0  0
    5.1478   17.0656    5.5865 C   0  0  0  0  0  0  0  0  0  0  0  0
  1  3  1  0  0  0  0
  1  5  1  0  0  0  0
  1  6  2  0  0  0  0
  2  5  2  0  0  0  0
  2 11  1  0  0  0  0
  2  4  1  0  0  0  0
  6 10  1  0  0  0  0
  7  8  2  0  0  0  0
  7 12  1  0  0  0  0
  8  9  1  0  0  0  0
  9 10  2  0  0  0  0
 10 11  1  0  0  0  0
 11 12  2  0  0  0  0
M  END
>  <CHROM.1>
6.02695133,17.60546332,3.77871352,-1.33639596,0.95803220,1.14574490

>  <Name>
ligand

>  <RI>
0

>  <Rbt.Current_Directory>
/home/itssahil/PROJECTS/Mol_Feturizer/New_Systems/rnas/4LX5

>  <Rbt.Executable>
rbdock ($Id: //depot/dev/client3/rdock/2013.1/src/exe/rbdock.cxx#4 $)

>  <Rbt.Library>
libRbt.so (2013.1, Build901 2013/11/27)

>  <Rbt.Parameter_File>
/export/apps/rDock/src/rDock_2013.1_src/data/scripts/dock_solv.prm

>  <Rbt.Receptor>
prm/blind_docking_60.prm

>  <SCORE>
-14.0304

>  <SCORE.INTER>
-14.0304

>  <SCORE.INTER.CONST>
1

>  <SCORE.INTER.POLAR>
0

>  <SCORE.INTER.ROT>
0

>  <SCORE.INTER.SOLV>
19.182

>  <SCORE.INTER.VDW>
-19.3476

>  <SCORE.INTER.norm>
-1.1692

>  <SCORE.INTRA>
0

>  <SCORE.INTRA.DIHEDRAL>
0

>  <SCORE.INTRA.DIHEDRAL.0>
0

>  <SCORE.INTRA.POLAR>
0

>  <SCORE.INTRA.POLAR.0>
0

>  <SCORE.INTRA.REPUL>
0

>  <SCORE.INTRA.REPUL.0>
0

>  <SCORE.INTRA.SOLV>
0

>  <SCORE.INTRA.SOLV.lig_0>
-48.1583

>  <SCORE.INTRA.VDW>
0

>  <SCORE.INTRA.VDW.0>
0

>  <SCORE.INTRA.norm>
0

>  <SCORE.RESTR>
0

>  <SCORE.RESTR.CAVITY>
0

>  <SCORE.RESTR.norm>
0

>  <SCORE.SYSTEM>
0

>  <SCORE.SYSTEM.CONST>
0

>  <SCORE.SYSTEM.DIHEDRAL>
0

>  <SCORE.SYSTEM.SOLV>
0

>  <SCORE.SYSTEM.norm>
0

>  <SCORE.heavy>
12

>  <SCORE.norm>
-1.1692

>  <RMSD>
0.522

$$$$
ligand
 OpenBabel11021811503D
libRbt.so/2013.1/901 2013/11/27
 12 13  0  0  0  0  0  0  0  0999 V2000
    6.6696   17.6475    1.7977 C   0  0  0  0  0  0  0  0  0  0  0  0
    5.3785   16.3799    3.2678 C   0  0  0  0  0  0  0  0  0  0  0  0
    7.1437   17.8364    0.5695 N   0  0  0  0  0  0  0  0  0  0  0  0
    4.6095   15.3255    3.5611 N   0  0  0  0  0  0  0  0  0  0  0  0
    5.8867   16.5743    2.0436 N   0  0  0  0  0  0  0  0  0  0  0  0
    6.9543   18.5425    2.7696 N   0  0  0  0  0  0  0  0  0  0  0  0
    5.4621   18.0000    6.5898 N   0  0  0  0  0  0  0  0  0  0  0  0
    6.2743   19.1060    6.2956 C   0  0  0  0  0  0  0  0  0  0  0  0
    6.7879   19.2785    4.9890 N   0  0  0  0  0  0  0  0  0  0  0  0
    6.4727   18.3839    4.0277 C   0  0  0  0  0  0  0  0  0  0  0  0
    5.6552   17.2826    4.3018 C   0  0  0  0  0  0  0  0  0  0  0  0
    5.1394   17.0726    5.5794 C   0  0  0  0  0  0  0  0  0  0  0  0
  1  3  1  0  0  0  0
  1  5  1  0  0  0  0
  1  6  2  0  0  0  0
  2  5  2  0  0  0  0
  2 11  1  0  0  0  0
  2  4  1  0  0  0  0
  6 10  1  0  0  0  0
  7  8  2  0  0  0  0
  7 12  1  0  0  0  0
  8  9  1  0  0  0  0
  9 10  2  0  0  0  0
 10 11  1  0  0  0  0
 11 12  2  0  0  0  0
M  END
>  <CHROM.1>
6.04417460,17.61710795,3.78568275,-1.32558174,0.94448916,1.14437727

>  <Name>
ligand

>  <RI>
0

>  <Rbt.Current_Directory>
/home/itssahil/PROJECTS/Mol_Feturizer/New_Systems/rnas/4LX5

>  <Rbt.Executable>
rbdock ($Id: //depot/dev/client3/rdock/2013.1/src/exe/rbdock.cxx#4 $)

>  <Rbt.Library>
libRbt.so (2013.1, Build901 2013/11/27)

>  <Rbt.Parameter_File>
/export/apps/rDock/src/rDock_2013.1_src/data/scripts/dock_solv.prm

>  <Rbt.Receptor>
prm/pocket_docking_3.prm

>  <SCORE>
-14.0574

>  <SCORE.INTER>
-14.0574

>  <SCORE.INTER.CONST>
1

>  <SCORE.INTER.POLAR>
0

>  <SCORE.INTER.ROT>
0

>  <SCORE.INTER.SOLV>
19.1891

>  <SCORE.INTER.VDW>
-19.368

>  <SCORE.INTER.norm>
-1.17145

>  <SCORE.INTRA>
0

>  <SCORE.INTRA.DIHEDRAL>
0

>  <SCORE.INTRA.DIHEDRAL.0>
0

>  <SCORE.INTRA.POLAR>
0

>  <SCORE.INTRA.POLAR.0>
0

>  <SCORE.INTRA.REPUL>
0

>  <SCORE.INTRA.REPUL.0>
0

>  <SCORE.INTRA.SOLV>
0

>  <SCORE.INTRA.SOLV.lig_0>
-48.1583

>  <SCORE.INTRA.VDW>
0

>  <SCORE.INTRA.VDW.0>
0

>  <SCORE.INTRA.norm>
0

>  <SCORE.RESTR>
0

>  <SCORE.RESTR.CAVITY>
0

>  <SCORE.RESTR.norm>
0

>  <SCORE.SYSTEM>
0

>  <SCORE.SYSTEM.CONST>
0

>  <SCORE.SYSTEM.DIHEDRAL>
0

>  <SCORE.SYSTEM.SOLV>
0

>  <SCORE.SYSTEM.norm>
0

>  <SCORE.heavy>
12

>  <SCORE.norm>
-1.17145

>  <RMSD>
0.522

$$$$
ligand
 OpenBabel11021811503D
libRbt.so/2013.1/901 2013/11/27
 12 13  0  0  0  0  0  0  0  0999 V2000
    6.6877   17.5678    1.8124 C   0  0  0  0  0  0  0  0  0  0  0  0
    5.4117   16.3099    3.3039 C   0  0  0  0  0  0  0  0  0  0  0  0
    7.1626   17.7394    0.5820 N   0  0  0  0  0  0  0  0  0  0  0  0
    4.6580   15.2499    3.6160 N   0  0  0  0  0  0  0  0  0  0  0  0
    5.9206   16.4877    2.0775 N   0  0  0  0  0  0  0  0  0  0  0  0
    6.9556   18.4862    2.7671 N   0  0  0  0  0  0  0  0  0  0  0  0
    5.4601   17.9969    6.5931 N   0  0  0  0  0  0  0  0  0  0  0  0
    6.2561   19.1093    6.2792 C   0  0  0  0  0  0  0  0  0  0  0  0
    6.7711   19.2636    4.9709 N   0  0  0  0  0  0  0  0  0  0  0  0
    6.4726   18.3453    4.0267 C   0  0  0  0  0  0  0  0  0  0  0  0
    5.6713   17.2372    4.3205 C   0  0  0  0  0  0  0  0  0  0  0  0
    5.1548   17.0447    5.6005 C   0  0  0  0  0  0  0  0  0  0  0  0
  1  3  1  0  0  0  0
  1  5  1  0  0  0  0
  1  6  2  0  0  0  0
  2  5  2  0  0  0  0
  2 11  1  0  0  0  0
  2  4  1  0  0  0  0
  6 10  1  0  0  0  0
  7  8  2  0  0  0  0
  7 12  1  0  0  0  0
  8  9  1  0  0  0  0
  9 10  2  0  0  0  0
 10 11  1  0  0  0  0
 11 12  2  0  0  0  0
M  END
>  <CHROM.1>
6.05666808,17.56732784,3.79887002,-1.30966896,0.95712135,1.11149557

>  <Name>
ligand

>  <RI>
0

>  <Rbt.Current_Directory>
/home/itssahil/PROJECTS/Mol_Feturizer/New_Systems/rnas/4LX5

>  <Rbt.Executable>
rbdock ($Id: //depot/dev/client3/rdock/2013.1/src/exe/rbdock.cxx#4 $)

>  <Rbt.Library>
libRbt.so (2013.1, Build901 2013/11/27)

>  <Rbt.Parameter_File>
/export/apps/rDock/src/rDock_2013.1_src/data/scripts/dock_solv.prm

>  <Rbt.Receptor>
prm/pocket_docking_3.prm

>  <SCORE>
-14.1031

>  <SCORE.INTER>
-14.1031

>  <SCORE.INTER.CONST>
1

>  <SCORE.INTER.POLAR>
0

>  <SCORE.INTER.ROT>
0

>  <SCORE.INTER.SOLV>
19.3946

>  <SCORE.INTER.VDW>
-19.4669

>  <SCORE.INTER.norm>
-1.17526

>  <SCORE.INTRA>
0

>  <SCORE.INTRA.DIHEDRAL>
0

>  <SCORE.INTRA.DIHEDRAL.0>
0

>  <SCORE.INTRA.POLAR>
0

>  <SCORE.INTRA.POLAR.0>
0

>  <SCORE.INTRA.REPUL>
0

>  <SCORE.INTRA.REPUL.0>
0

>  <SCORE.INTRA.SOLV>
0

>  <SCORE.INTRA.SOLV.lig_0>
-48.1583

>  <SCORE.INTRA.VDW>
0

>  <SCORE.INTRA.VDW.0>
0

>  <SCORE.INTRA.norm>
0

>  <SCORE.RESTR>
0

>  <SCORE.RESTR.CAVITY>
0

>  <SCORE.RESTR.norm>
0

>  <SCORE.SYSTEM>
0

>  <SCORE.SYSTEM.CONST>
0

>  <SCORE.SYSTEM.DIHEDRAL>
0

>  <SCORE.SYSTEM.SOLV>
0

>  <SCORE.SYSTEM.norm>
0

>  <SCORE.heavy>
12

>  <SCORE.norm>
-1.17526

>  <RMSD>
0.522

$$$$
ligand
 OpenBabel11021811503D
libRbt.so/2013.1/901 2013/11/27
 12 13  0  0  0  0  0  0  0  0999 V2000
    6.6715   17.6518    1.8071 C   0  0  0  0  0  0  0  0  0  0  0  0
    5.3479   16.3963    3.2587 C   0  0  0  0  0  0  0  0  0  0  0  0
    7.1582   17.8408    0.5839 N   0  0  0  0  0  0  0  0  0  0  0  0
    4.5591   15.3532    3.5390 N   0  0  0  0  0  0  0  0  0  0  0  0
    5.8688   16.5903    2.0398 N   0  0  0  0  0  0  0  0  0  0  0  0
    6.9637   18.5353    2.7873 N   0  0  0  0  0  0  0  0  0  0  0  0
    5.4331   17.9926    6.5922 N   0  0  0  0  0  0  0  0  0  0  0  0
    6.2660   19.0867    6.3117 C   0  0  0  0  0  0  0  0  0  0  0  0
    6.7925   19.2592    5.0103 N   0  0  0  0  0  0  0  0  0  0  0  0
    6.4697   18.3765    4.0405 C   0  0  0  0  0  0  0  0  0  0  0  0
    5.6318   17.2874    4.3010 C   0  0  0  0  0  0  0  0  0  0  0  0
    5.1027   17.0775    5.5731 C   0  0  0  0  0  0  0  0  0  0  0  0
  1  3  1  0  0  0  0
  1  5  1  0  0  0  0
  1  6  2  0  0  0  0
  2  5  2  0  0  0  0
  2 11  1  0  0  0  0
  2  4  1  0  0  0  0
  6 10  1  0  0  0  0
  7  8  2  0  0  0  0
  7 12  1  0  0  0  0
  8  9  1  0  0  0  0
  9 10  2  0  0  0  0
 10 11  1  0  0  0  0
 11 12  2  0  0  0  0
M  END
>  <CHROM.1>
6.03029444,17.61867283,3.79007556,-1.32542696,0.92599544,1.15098685

>  <Name>
ligand

>  <RI>
0

>  <Rbt.Current_Directory>
/home/itssahil/PROJECTS/Mol_Feturizer/New_Systems/rnas/4LX5

>  <Rbt.Executable>
rbdock ($Id: //depot/dev/client3/rdock/2013.1/src/exe/rbdock.cxx#4 $)

>  <Rbt.Library>
libRbt.so (2013.1, Build901 2013/11/27)

>  <Rbt.Parameter_File>
/export/apps/rDock/src/rDock_2013.1_src/data/scripts/dock_solv.prm

>  <Rbt.Receptor>
prm/pocket_docking_8.prm

>  <SCORE>
-14.0707

>  <SCORE.INTER>
-14.0707

>  <SCORE.INTER.CONST>
1

>  <SCORE.INTER.POLAR>
0

>  <SCORE.INTER.ROT>
0

>  <SCORE.INTER.SOLV>
18.977

>  <SCORE.INTER.VDW>
-19.3061

>  <SCORE.INTER.norm>
-1.17255

>  <SCORE.INTRA>
0

>  <SCORE.INTRA.DIHEDRAL>
0

>  <SCORE.INTRA.DIHEDRAL.0>
0

>  <SCORE.INTRA.POLAR>
0

>  <SCORE.INTRA.POLAR.0>
0

>  <SCORE.INTRA.REPUL>
0

>  <SCORE.INTRA.REPUL.0>
0

>  <SCORE.INTRA.SOLV>
0

>  <SCORE.INTRA.SOLV.lig_0>
-48.1583

>  <SCORE.INTRA.VDW>
0

>  <SCORE.INTRA.VDW.0>
0

>  <SCORE.INTRA.norm>
0

>  <SCORE.RESTR>
0

>  <SCORE.RESTR.CAVITY>
0

>  <SCORE.RESTR.norm>
0

>  <SCORE.SYSTEM>
0

>  <SCORE.SYSTEM.CONST>
0

>  <SCORE.SYSTEM.DIHEDRAL>
0

>  <SCORE.SYSTEM.SOLV>
0

>  <SCORE.SYSTEM.norm>
0

>  <SCORE.heavy>
12

>  <SCORE.norm>
-1.17255

>  <RMSD>
0.522

$$$$
ligand
 OpenBabel11021811503D
libRbt.so/2013.1/901 2013/11/27
 12 13  0  0  0  0  0  0  0  0999 V2000
    6.6586   17.6674    1.7988 C   0  0  0  0  0  0  0  0  0  0  0  0
    5.3444   16.4061    3.2538 C   0  0  0  0  0  0  0  0  0  0  0  0
    7.1396   17.8597    0.5738 N   0  0  0  0  0  0  0  0  0  0  0  0
    4.5594   15.3605    3.5356 N   0  0  0  0  0  0  0  0  0  0  0  0
    5.8596   16.6034    2.0330 N   0  0  0  0  0  0  0  0  0  0  0  0
    6.9527   18.5501    2.7791 N   0  0  0  0  0  0  0  0  0  0  0  0
    5.4395   17.9970    6.5896 N   0  0  0  0  0  0  0  0  0  0  0  0
    6.2684   19.0938    6.3074 C   0  0  0  0  0  0  0  0  0  0  0  0
    6.7890   19.2698    5.0041 N   0  0  0  0  0  0  0  0  0  0  0  0
    6.4644   18.3878    4.0342 C   0  0  0  0  0  0  0  0  0  0  0  0
    5.6304   17.2961    4.2963 C   0  0  0  0  0  0  0  0  0  0  0  0
    5.1071   17.0828    5.5703 C   0  0  0  0  0  0  0  0  0  0  0  0
  1  3  1  0  0  0  0
  1  5  1  0  0  0  0
  1  6  2  0  0  0  0
  2  5  2  0  0  0  0
  2 11  1  0  0  0  0
  2  4  1  0  0  0  0
  6 10  1  0  0  0  0
  7  8  2  0  0  0  0
  7 12  1  0  0  0  0
  8  9  1  0  0  0  0
  9 10  2  0  0  0  0
 10 11  1  0  0  0  0
 11 12  2  0  0  0  0
M  END
>  <CHROM.1>
6.02585665,17.62933775,3.78433291,-1.33012977,0.93004917,1.15643164

>  <Name>
ligand

>  <RI>
0

>  <Rbt.Current_Directory>
/home/itssahil/PROJECTS/Mol_Feturizer/New_Systems/rnas/4LX5

>  <Rbt.Executable>
rbdock ($Id: //depot/dev/client3/rdock/2013.1/src/exe/rbdock.cxx#4 $)

>  <Rbt.Library>
libRbt.so (2013.1, Build901 2013/11/27)

>  <Rbt.Parameter_File>
/export/apps/rDock/src/rDock_2013.1_src/data/scripts/dock_solv.prm

>  <Rbt.Receptor>
prm/pocket_docking_8.prm

>  <SCORE>
-14.0979

>  <SCORE.INTER>
-14.0979

>  <SCORE.INTER.CONST>
1

>  <SCORE.INTER.POLAR>
0

>  <SCORE.INTER.ROT>
0

>  <SCORE.INTER.SOLV>
18.9955

>  <SCORE.INTER.VDW>
-19.3305

>  <SCORE.INTER.norm>
-1.17483

>  <SCORE.INTRA>
0

>  <SCORE.INTRA.DIHEDRAL>
0

>  <SCORE.INTRA.DIHEDRAL.0>
0

>  <SCORE.INTRA.POLAR>
0

>  <SCORE.INTRA.POLAR.0>
0

>  <SCORE.INTRA.REPUL>
0

>  <SCORE.INTRA.REPUL.0>
0

>  <SCORE.INTRA.SOLV>
0

>  <SCORE.INTRA.SOLV.lig_0>
-48.1583

>  <SCORE.INTRA.VDW>
0

>  <SCORE.INTRA.VDW.0>
0

>  <SCORE.INTRA.norm>
0

>  <SCORE.RESTR>
0

>  <SCORE.RESTR.CAVITY>
0

>  <SCORE.RESTR.norm>
0

>  <SCORE.SYSTEM>
0

>  <SCORE.SYSTEM.CONST>
0

>  <SCORE.SYSTEM.DIHEDRAL>
0

>  <SCORE.SYSTEM.SOLV>
0

>  <SCORE.SYSTEM.norm>
0

>  <SCORE.heavy>
12

>  <SCORE.norm>
-1.17483

>  <RMSD>
0.524

$$$$
ligand
 OpenBabel11021811503D
libRbt.so/2013.1/901 2013/11/27
 12 13  0  0  0  0  0  0  0  0999 V2000
    6.6297   17.6181    1.7347 C   0  0  0  0  0  0  0  0  0  0  0  0
    5.3191   16.4696    3.2833 C   0  0  0  0  0  0  0  0  0  0  0  0
    7.0732   17.7432    0.4871 N   0  0  0  0  0  0  0  0  0  0  0  0
    4.5031   15.4695    3.6335 N   0  0  0  0  0  0  0  0  0  0  0  0
    5.7972   16.5984    2.0385 N   0  0  0  0  0  0  0  0  0  0  0  0
    6.9949   18.5244    2.6685 N   0  0  0  0  0  0  0  0  0  0  0  0
    5.6002   18.1812    6.5482 N   0  0  0  0  0  0  0  0  0  0  0  0
    6.4622   19.2306    6.1941 C   0  0  0  0  0  0  0  0  0  0  0  0
    6.9418   19.3347    4.8675 N   0  0  0  0  0  0  0  0  0  0  0  0
    6.5465   18.4308    3.9452 C   0  0  0  0  0  0  0  0  0  0  0  0
    5.6789   17.3860    4.2792 C   0  0  0  0  0  0  0  0  0  0  0  0
    5.1941   17.2436    5.5781 C   0  0  0  0  0  0  0  0  0  0  0  0
  1  3  1  0  0  0  0
  1  5  1  0  0  0  0
  1  6  2  0  0  0  0
  2  5  2  0  0  0  0
  2 11  1  0  0  0  0
  2  4  1  0  0  0  0
  6 10  1  0  0  0  0
  7  8  2  0  0  0  0
  7 12  1  0  0  0  0
  8  9  1  0  0  0  0
  9 10  2  0  0  0  0
 10 11  1  0  0  0  0
 11 12  2  0  0  0  0
M  END
>  <CHROM.1>
6.06864375,17.68246950,3.74098320,-1.41076475,0.90587158,1.18158535

>  <Name>
ligand

>  <RI>
0

>  <Rbt.Current_Directory>
/home/itssahil/PROJECTS/Mol_Feturizer/New_Systems/rnas/4LX5

>  <Rbt.Executable>
rbdock ($Id: //depot/dev/client3/rdock/2013.1/src/exe/rbdock.cxx#4 $)

>  <Rbt.Library>
libRbt.so (2013.1, Build901 2013/11/27)

>  <Rbt.Parameter_File>
/export/apps/rDock/src/rDock_2013.1_src/data/scripts/dock_solv.prm

>  <Rbt.Receptor>
prm/pocket_docking_5.prm

>  <SCORE>
-14.027

>  <SCORE.INTER>
-14.027

>  <SCORE.INTER.CONST>
1

>  <SCORE.INTER.POLAR>
0

>  <SCORE.INTER.ROT>
0

>  <SCORE.INTER.SOLV>
18.4331

>  <SCORE.INTER.VDW>
-19.0957

>  <SCORE.INTER.norm>
-1.16891

>  <SCORE.INTRA>
0

>  <SCORE.INTRA.DIHEDRAL>
0

>  <SCORE.INTRA.DIHEDRAL.0>
0

>  <SCORE.INTRA.POLAR>
0

>  <SCORE.INTRA.POLAR.0>
0

>  <SCORE.INTRA.REPUL>
0

>  <SCORE.INTRA.REPUL.0>
0

>  <SCORE.INTRA.SOLV>
0

>  <SCORE.INTRA.SOLV.lig_0>
-48.1583

>  <SCORE.INTRA.VDW>
0

>  <SCORE.INTRA.VDW.0>
0

>  <SCORE.INTRA.norm>
0

>  <SCORE.RESTR>
0

>  <SCORE.RESTR.CAVITY>
0

>  <SCORE.RESTR.norm>
0

>  <SCORE.SYSTEM>
0

>  <SCORE.SYSTEM.CONST>
0

>  <SCORE.SYSTEM.DIHEDRAL>
0

>  <SCORE.SYSTEM.SOLV>
0

>  <SCORE.SYSTEM.norm>
0

>  <SCORE.heavy>
12

>  <SCORE.norm>
-1.16891

>  <RMSD>
0.562

$$$$
ligand
 OpenBabel11021811503D
libRbt.so/2013.1/901 2013/11/27
 12 13  0  0  0  0  0  0  0  0999 V2000
    6.5871   17.5600    1.7198 C   0  0  0  0  0  0  0  0  0  0  0  0
    5.2792   16.4490    3.2977 C   0  0  0  0  0  0  0  0  0  0  0  0
    7.0131   17.6671    0.4644 N   0  0  0  0  0  0  0  0  0  0  0  0
    4.4494   15.4676    3.6685 N   0  0  0  0  0  0  0  0  0  0  0  0
    5.7398   16.5591    2.0446 N   0  0  0  0  0  0  0  0  0  0  0  0
    6.9848   18.4657    2.6407 N   0  0  0  0  0  0  0  0  0  0  0  0
    5.6458   18.1787    6.5445 N   0  0  0  0  0  0  0  0  0  0  0  0
    6.5224   19.2083    6.1688 C   0  0  0  0  0  0  0  0  0  0  0  0
    6.9826   19.2932    4.8340 N   0  0  0  0  0  0  0  0  0  0  0  0
    6.5551   18.3905    3.9250 C   0  0  0  0  0  0  0  0  0  0  0  0
    5.6726   17.3654    4.2808 C   0  0  0  0  0  0  0  0  0  0  0  0
    5.2059   17.2421    5.5882 C   0  0  0  0  0  0  0  0  0  0  0  0
  1  3  1  0  0  0  0
  1  5  1  0  0  0  0
  1  6  2  0  0  0  0
  2  5  2  0  0  0  0
  2 11  1  0  0  0  0
  2  4  1  0  0  0  0
  6 10  1  0  0  0  0
  7  8  2  0  0  0  0
  7 12  1  0  0  0  0
  8  9  1  0  0  0  0
  9 10  2  0  0  0  0
 10 11  1  0  0  0  0
 11 12  2  0  0  0  0
M  END
>  <CHROM.1>
6.05949743,17.65015212,3.73416235,-1.44615419,0.89352048,1.20176637

>  <Name>
ligand

>  <RI>
0

>  <Rbt.Current_Directory>
/home/itssahil/PROJECTS/Mol_Feturizer/New_Systems/rnas/4LX5

>  <Rbt.Executable>
rbdock ($Id: //depot/dev/client3/rdock/2013.1/src/exe/rbdock.cxx#4 $)

>  <Rbt.Library>
libRbt.so (2013.1, Build901 2013/11/27)

>  <Rbt.Parameter_File>
/export/apps/rDock/src/rDock_2013.1_src/data/scripts/dock_solv.prm

>  <Rbt.Receptor>
prm/blind_docking_40.prm

>  <SCORE>
-14.0603

>  <SCORE.INTER>
-14.0603

>  <SCORE.INTER.CONST>
1

>  <SCORE.INTER.POLAR>
0

>  <SCORE.INTER.ROT>
0

>  <SCORE.INTER.SOLV>
18.1173

>  <SCORE.INTER.VDW>
-19.0126

>  <SCORE.INTER.norm>
-1.17169

>  <SCORE.INTRA>
0

>  <SCORE.INTRA.DIHEDRAL>
0

>  <SCORE.INTRA.DIHEDRAL.0>
0

>  <SCORE.INTRA.POLAR>
0

>  <SCORE.INTRA.POLAR.0>
0

>  <SCORE.INTRA.REPUL>
0

>  <SCORE.INTRA.REPUL.0>
0

>  <SCORE.INTRA.SOLV>
0

>  <SCORE.INTRA.SOLV.lig_0>
-48.1583

>  <SCORE.INTRA.VDW>
0

>  <SCORE.INTRA.VDW.0>
0

>  <SCORE.INTRA.norm>
0

>  <SCORE.RESTR>
0

>  <SCORE.RESTR.CAVITY>
0

>  <SCORE.RESTR.norm>
0

>  <SCORE.SYSTEM>
0

>  <SCORE.SYSTEM.CONST>
0

>  <SCORE.SYSTEM.DIHEDRAL>
0

>  <SCORE.SYSTEM.SOLV>
0

>  <SCORE.SYSTEM.norm>
0

>  <SCORE.heavy>
12

>  <SCORE.norm>
-1.17169

>  <RMSD>
0.564

$$$$
ligand
 OpenBabel11021811503D
libRbt.so/2013.1/901 2013/11/27
 12 13  0  0  0  0  0  0  0  0999 V2000
    6.6511   17.6347    1.7519 C   0  0  0  0  0  0  0  0  0  0  0  0
    5.3845   16.4497    3.3095 C   0  0  0  0  0  0  0  0  0  0  0  0
    7.0895   17.7671    0.5032 N   0  0  0  0  0  0  0  0  0  0  0  0
    4.6062   15.4224    3.6674 N   0  0  0  0  0  0  0  0  0  0  0  0
    5.8572   16.5870    2.0636 N   0  0  0  0  0  0  0  0  0  0  0  0
    6.9827   18.5607    2.6789 N   0  0  0  0  0  0  0  0  0  0  0  0
    5.6026   18.1943    6.5617 N   0  0  0  0  0  0  0  0  0  0  0  0
    6.4249   19.2723    6.1996 C   0  0  0  0  0  0  0  0  0  0  0  0
    6.9000   19.3845    4.8720 N   0  0  0  0  0  0  0  0  0  0  0  0
    6.5383   18.4599    3.9565 C   0  0  0  0  0  0  0  0  0  0  0  0
    5.7102   17.3860    4.2986 C   0  0  0  0  0  0  0  0  0  0  0  0
    5.2313   17.2351    5.5987 C   0  0  0  0  0  0  0  0  0  0  0  0
  1  3  1  0  0  0  0
  1  5  1  0  0  0  0
  1  6  2  0  0  0  0
  2  5  2  0  0  0  0
  2 11  1  0  0  0  0
  2  4  1  0  0  0  0
  6 10  1  0  0  0  0
  7  8  2  0  0  0  0
  7 12  1  0  0  0  0
  8  9  1  0  0  0  0
  9 10  2  0  0  0  0
 10 11  1  0  0  0  0
 11 12  2  0  0  0  0
M  END
>  <CHROM.1>
6.08855359,17.69280802,3.75797377,-1.38720852,0.94020143,1.15550721

>  <Name>
ligand

>  <RI>
0

>  <Rbt.Current_Directory>
/home/itssahil/PROJECTS/Mol_Feturizer/New_Systems/rnas/4LX5

>  <Rbt.Executable>
rbdock ($Id: //depot/dev/client3/rdock/2013.1/src/exe/rbdock.cxx#4 $)

>  <Rbt.Library>
libRbt.so (2013.1, Build901 2013/11/27)

>  <Rbt.Parameter_File>
/export/apps/rDock/src/rDock_2013.1_src/data/scripts/dock_solv.prm

>  <Rbt.Receptor>
prm/pocket_docking_8.prm

>  <SCORE>
-14.0269

>  <SCORE.INTER>
-14.0269

>  <SCORE.INTER.CONST>
1

>  <SCORE.INTER.POLAR>
0

>  <SCORE.INTER.ROT>
0

>  <SCORE.INTER.SOLV>
18.9393

>  <SCORE.INTER.VDW>
-19.2643

>  <SCORE.INTER.norm>
-1.1689

>  <SCORE.INTRA>
0

>  <SCORE.INTRA.DIHEDRAL>
0

>  <SCORE.INTRA.DIHEDRAL.0>
0

>  <SCORE.INTRA.POLAR>
0

>  <SCORE.INTRA.POLAR.0>
0

>  <SCORE.INTRA.REPUL>
0

>  <SCORE.INTRA.REPUL.0>
0

>  <SCORE.INTRA.SOLV>
0

>  <SCORE.INTRA.SOLV.lig_0>
-48.1583

>  <SCORE.INTRA.VDW>
0

>  <SCORE.INTRA.VDW.0>
0

>  <SCORE.INTRA.norm>
0

>  <SCORE.RESTR>
0

>  <SCORE.RESTR.CAVITY>
0

>  <SCORE.RESTR.norm>
0

>  <SCORE.SYSTEM>
0

>  <SCORE.SYSTEM.CONST>
0

>  <SCORE.SYSTEM.DIHEDRAL>
0

>  <SCORE.SYSTEM.SOLV>
0

>  <SCORE.SYSTEM.norm>
0

>  <SCORE.heavy>
12

>  <SCORE.norm>
-1.1689

>  <RMSD>
0.578

$$$$
ligand
 OpenBabel11021811503D
libRbt.so/2013.1/901 2013/11/27
 12 13  0  0  0  0  0  0  0  0999 V2000
    6.6689   17.5984    1.8200 C   0  0  0  0  0  0  0  0  0  0  0  0
    5.4243   16.3599    3.3537 C   0  0  0  0  0  0  0  0  0  0  0  0
    7.1236   17.7506    0.5795 N   0  0  0  0  0  0  0  0  0  0  0  0
    4.6825   15.3011    3.6967 N   0  0  0  0  0  0  0  0  0  0  0  0
    5.9130   16.5186    2.1165 N   0  0  0  0  0  0  0  0  0  0  0  0
    6.9457   18.5356    2.7536 N   0  0  0  0  0  0  0  0  0  0  0  0
    5.5129   18.1067    6.6108 N   0  0  0  0  0  0  0  0  0  0  0  0
    6.2967   19.2181    6.2644 C   0  0  0  0  0  0  0  0  0  0  0  0
    6.7903   19.3518    4.9457 N   0  0  0  0  0  0  0  0  0  0  0  0
    6.4831   18.4146    4.0230 C   0  0  0  0  0  0  0  0  0  0  0  0
    5.6937   17.3072    4.3493 C   0  0  0  0  0  0  0  0  0  0  0  0
    5.1984   17.1347    5.6405 C   0  0  0  0  0  0  0  0  0  0  0  0
  1  3  1  0  0  0  0
  1  5  1  0  0  0  0
  1  6  2  0  0  0  0
  2  5  2  0  0  0  0
  2 11  1  0  0  0  0
  2  4  1  0  0  0  0
  6 10  1  0  0  0  0
  7  8  2  0  0  0  0
  7 12  1  0  0  0  0
  8  9  1  0  0  0  0
  9 10  2  0  0  0  0
 10 11  1  0  0  0  0
 11 12  2  0  0  0  0
M  END
>  <CHROM.1>
6.06877602,17.63010275,3.81579223,-1.32916603,0.96973026,1.10938511

>  <Name>
ligand

>  <RI>
0

>  <Rbt.Current_Directory>
/home/itssahil/PROJECTS/Mol_Feturizer/New_Systems/rnas/4LX5

>  <Rbt.Executable>
rbdock ($Id: //depot/dev/client3/rdock/2013.1/src/exe/rbdock.cxx#4 $)

>  <Rbt.Library>
libRbt.so (2013.1, Build901 2013/11/27)

>  <Rbt.Parameter_File>
/export/apps/rDock/src/rDock_2013.1_src/data/scripts/dock_solv.prm

>  <Rbt.Receptor>
prm/pocket_docking_7.prm

>  <SCORE>
-14.0855

>  <SCORE.INTER>
-14.0855

>  <SCORE.INTER.CONST>
1

>  <SCORE.INTER.POLAR>
0

>  <SCORE.INTER.ROT>
0

>  <SCORE.INTER.SOLV>
19.4112

>  <SCORE.INTER.VDW>
-19.4608

>  <SCORE.INTER.norm>
-1.17379

>  <SCORE.INTRA>
0

>  <SCORE.INTRA.DIHEDRAL>
0

>  <SCORE.INTRA.DIHEDRAL.0>
0

>  <SCORE.INTRA.POLAR>
0

>  <SCORE.INTRA.POLAR.0>
0

>  <SCORE.INTRA.REPUL>
0

>  <SCORE.INTRA.REPUL.0>
0

>  <SCORE.INTRA.SOLV>
0

>  <SCORE.INTRA.SOLV.lig_0>
-48.1583

>  <SCORE.INTRA.VDW>
0

>  <SCORE.INTRA.VDW.0>
0

>  <SCORE.INTRA.norm>
0

>  <SCORE.RESTR>
0

>  <SCORE.RESTR.CAVITY>
0

>  <SCORE.RESTR.norm>
0

>  <SCORE.SYSTEM>
0

>  <SCORE.SYSTEM.CONST>
0

>  <SCORE.SYSTEM.DIHEDRAL>
0

>  <SCORE.SYSTEM.SOLV>
0

>  <SCORE.SYSTEM.norm>
0

>  <SCORE.heavy>
12

>  <SCORE.norm>
-1.17379

>  <RMSD>
0.579

$$$$
ligand
 OpenBabel11021811503D
libRbt.so/2013.1/901 2013/11/27
 12 13  0  0  0  0  0  0  0  0999 V2000
    6.6749   17.6009    1.8248 C   0  0  0  0  0  0  0  0  0  0  0  0
    5.4300   16.3632    3.3587 C   0  0  0  0  0  0  0  0  0  0  0  0
    7.1293   17.7530    0.5841 N   0  0  0  0  0  0  0  0  0  0  0  0
    4.6874   15.3049    3.7018 N   0  0  0  0  0  0  0  0  0  0  0  0
    5.9183   16.5217    2.1214 N   0  0  0  0  0  0  0  0  0  0  0  0
    6.9528   18.5378    2.7585 N   0  0  0  0  0  0  0  0  0  0  0  0
    5.5211   18.1092    6.6161 N   0  0  0  0  0  0  0  0  0  0  0  0
    6.3057   19.2200    6.2697 C   0  0  0  0  0  0  0  0  0  0  0  0
    6.7989   19.3536    4.9508 N   0  0  0  0  0  0  0  0  0  0  0  0
    6.4906   18.4169    4.0280 C   0  0  0  0  0  0  0  0  0  0  0  0
    5.7005   17.3100    4.3544 C   0  0  0  0  0  0  0  0  0  0  0  0
    5.2055   17.1377    5.6457 C   0  0  0  0  0  0  0  0  0  0  0  0
  1  3  1  0  0  0  0
  1  5  1  0  0  0  0
  1  6  2  0  0  0  0
  2  5  2  0  0  0  0
  2 11  1  0  0  0  0
  2  4  1  0  0  0  0
  6 10  1  0  0  0  0
  7  8  2  0  0  0  0
  7 12  1  0  0  0  0
  8  9  1  0  0  0  0
  9 10  2  0  0  0  0
 10 11  1  0  0  0  0
 11 12  2  0  0  0  0
M  END
>  <CHROM.1>
6.07559340,17.63273882,3.82081004,-1.33037493,0.96916856,1.11058794

>  <Name>
ligand

>  <RI>
0

>  <Rbt.Current_Directory>
/home/itssahil/PROJECTS/Mol_Feturizer/New_Systems/rnas/4LX5

>  <Rbt.Executable>
rbdock ($Id: //depot/dev/client3/rdock/2013.1/src/exe/rbdock.cxx#4 $)

>  <Rbt.Library>
libRbt.so (2013.1, Build901 2013/11/27)

>  <Rbt.Parameter_File>
/export/apps/rDock/src/rDock_2013.1_src/data/scripts/dock_solv.prm

>  <Rbt.Receptor>
prm/pocket_docking_4.prm

>  <SCORE>
-14.0835

>  <SCORE.INTER>
-14.0835

>  <SCORE.INTER.CONST>
1

>  <SCORE.INTER.POLAR>
0

>  <SCORE.INTER.ROT>
0

>  <SCORE.INTER.SOLV>
19.4273

>  <SCORE.INTER.VDW>
-19.4648

>  <SCORE.INTER.norm>
-1.17363

>  <SCORE.INTRA>
0

>  <SCORE.INTRA.DIHEDRAL>
0

>  <SCORE.INTRA.DIHEDRAL.0>
0

>  <SCORE.INTRA.POLAR>
0

>  <SCORE.INTRA.POLAR.0>
0

>  <SCORE.INTRA.REPUL>
0

>  <SCORE.INTRA.REPUL.0>
0

>  <SCORE.INTRA.SOLV>
0

>  <SCORE.INTRA.SOLV.lig_0>
-48.1583

>  <SCORE.INTRA.VDW>
0

>  <SCORE.INTRA.VDW.0>
0

>  <SCORE.INTRA.norm>
0

>  <SCORE.RESTR>
0

>  <SCORE.RESTR.CAVITY>
0

>  <SCORE.RESTR.norm>
0

>  <SCORE.SYSTEM>
0

>  <SCORE.SYSTEM.CONST>
0

>  <SCORE.SYSTEM.DIHEDRAL>
0

>  <SCORE.SYSTEM.SOLV>
0

>  <SCORE.SYSTEM.norm>
0

>  <SCORE.heavy>
12

>  <SCORE.norm>
-1.17363

>  <RMSD>
0.584

$$$$
ligand
 OpenBabel11021811503D
libRbt.so/2013.1/901 2013/11/27
 12 13  0  0  0  0  0  0  0  0999 V2000
    6.6668   17.6120    1.8241 C   0  0  0  0  0  0  0  0  0  0  0  0
    5.3948   16.3903    3.3487 C   0  0  0  0  0  0  0  0  0  0  0  0
    7.1280   17.7611    0.5856 N   0  0  0  0  0  0  0  0  0  0  0  0
    4.6325   15.3440    3.6849 N   0  0  0  0  0  0  0  0  0  0  0  0
    5.8902   16.5451    2.1136 N   0  0  0  0  0  0  0  0  0  0  0  0
    6.9581   18.5399    2.7626 N   0  0  0  0  0  0  0  0  0  0  0  0
    5.5059   18.1211    6.6136 N   0  0  0  0  0  0  0  0  0  0  0  0
    6.3112   19.2192    6.2743 C   0  0  0  0  0  0  0  0  0  0  0  0
    6.8113   19.3494    4.9577 N   0  0  0  0  0  0  0  0  0  0  0  0
    6.4895   18.4221    4.0300 C   0  0  0  0  0  0  0  0  0  0  0  0
    5.6787   17.3281    4.3491 C   0  0  0  0  0  0  0  0  0  0  0  0
    5.1764   17.1593    5.6381 C   0  0  0  0  0  0  0  0  0  0  0  0
  1  3  1  0  0  0  0
  1  5  1  0  0  0  0
  1  6  2  0  0  0  0
  2  5  2  0  0  0  0
  2 11  1  0  0  0  0
  2  4  1  0  0  0  0
  6 10  1  0  0  0  0
  7  8  2  0  0  0  0
  7 12  1  0  0  0  0
  8  9  1  0  0  0  0
  9 10  2  0  0  0  0
 10 11  1  0  0  0  0
 11 12  2  0  0  0  0
M  END
>  <CHROM.1>
6.06133955,17.64628820,3.81817559,-1.33872047,0.95172835,1.12154077

>  <Name>
ligand

>  <RI>
0

>  <Rbt.Current_Directory>
/home/itssahil/PROJECTS/Mol_Feturizer/New_Systems/rnas/4LX5

>  <Rbt.Executable>
rbdock ($Id: //depot/dev/client3/rdock/2013.1/src/exe/rbdock.cxx#4 $)

>  <Rbt.Library>
libRbt.so (2013.1, Build901 2013/11/27)

>  <Rbt.Parameter_File>
/export/apps/rDock/src/rDock_2013.1_src/data/scripts/dock_solv.prm

>  <Rbt.Receptor>
prm/pocket_docking_7.prm

>  <SCORE>
-14.0689

>  <SCORE.INTER>
-14.0689

>  <SCORE.INTER.CONST>
1

>  <SCORE.INTER.POLAR>
0

>  <SCORE.INTER.ROT>
0

>  <SCORE.INTER.SOLV>
19.194

>  <SCORE.INTER.VDW>
-19.3773

>  <SCORE.INTER.norm>
-1.17241

>  <SCORE.INTRA>
0

>  <SCORE.INTRA.DIHEDRAL>
0

>  <SCORE.INTRA.DIHEDRAL.0>
0

>  <SCORE.INTRA.POLAR>
0

>  <SCORE.INTRA.POLAR.0>
0

>  <SCORE.INTRA.REPUL>
0

>  <SCORE.INTRA.REPUL.0>
0

>  <SCORE.INTRA.SOLV>
0

>  <SCORE.INTRA.SOLV.lig_0>
-48.1583

>  <SCORE.INTRA.VDW>
0

>  <SCORE.INTRA.VDW.0>
0

>  <SCORE.INTRA.norm>
0

>  <SCORE.RESTR>
0

>  <SCORE.RESTR.CAVITY>
0

>  <SCORE.RESTR.norm>
0

>  <SCORE.SYSTEM>
0

>  <SCORE.SYSTEM.CONST>
0

>  <SCORE.SYSTEM.DIHEDRAL>
0

>  <SCORE.SYSTEM.SOLV>
0

>  <SCORE.SYSTEM.norm>
0

>  <SCORE.heavy>
12

>  <SCORE.norm>
-1.17241

>  <RMSD>
0.585

$$$$
ligand
 OpenBabel11021811503D
libRbt.so/2013.1/901 2013/11/27
 12 13  0  0  0  0  0  0  0  0999 V2000
    6.6450   17.5939    1.8371 C   0  0  0  0  0  0  0  0  0  0  0  0
    5.3556   16.3837    3.3562 C   0  0  0  0  0  0  0  0  0  0  0  0
    7.1070   17.7430    0.5988 N   0  0  0  0  0  0  0  0  0  0  0  0
    4.5769   15.3478    3.6872 N   0  0  0  0  0  0  0  0  0  0  0  0
    5.8517   16.5380    2.1214 N   0  0  0  0  0  0  0  0  0  0  0  0
    6.9525   18.5114    2.7807 N   0  0  0  0  0  0  0  0  0  0  0  0
    5.4988   18.0928    6.6312 N   0  0  0  0  0  0  0  0  0  0  0  0
    6.3213   19.1798    6.2974 C   0  0  0  0  0  0  0  0  0  0  0  0
    6.8216   19.3099    4.9808 N   0  0  0  0  0  0  0  0  0  0  0  0
    6.4838   18.3934    4.0481 C   0  0  0  0  0  0  0  0  0  0  0  0
    5.6558   17.3107    4.3618 C   0  0  0  0  0  0  0  0  0  0  0  0
    5.1525   17.1424    5.6504 C   0  0  0  0  0  0  0  0  0  0  0  0
  1  3  1  0  0  0  0
  1  5  1  0  0  0  0
  1  6  2  0  0  0  0
  2  5  2  0  0  0  0
  2 11  1  0  0  0  0
  2  4  1  0  0  0  0
  6 10  1  0  0  0  0
  7  8  2  0  0  0  0
  7 12  1  0  0  0  0
  8  9  1  0  0  0  0
  9 10  2  0  0  0  0
 10 11  1  0  0  0  0
 11 12  2  0  0  0  0
M  END
>  <CHROM.1>
6.04283469,17.62594833,3.83221986,-1.35254609,0.93776056,1.13874464

>  <Name>
ligand

>  <RI>
0

>  <Rbt.Current_Directory>
/home/itssahil/PROJECTS/Mol_Feturizer/New_Systems/rnas/4LX5

>  <Rbt.Executable>
rbdock ($Id: //depot/dev/client3/rdock/2013.1/src/exe/rbdock.cxx#4 $)

>  <Rbt.Library>
libRbt.so (2013.1, Build901 2013/11/27)

>  <Rbt.Parameter_File>
/export/apps/rDock/src/rDock_2013.1_src/data/scripts/dock_solv.prm

>  <Rbt.Receptor>
prm/pocket_docking_5.prm

>  <SCORE>
-14.0904

>  <SCORE.INTER>
-14.0904

>  <SCORE.INTER.CONST>
1

>  <SCORE.INTER.POLAR>
0

>  <SCORE.INTER.ROT>
0

>  <SCORE.INTER.SOLV>
18.9652

>  <SCORE.INTER.VDW>
-19.3153

>  <SCORE.INTER.norm>
-1.1742

>  <SCORE.INTRA>
0

>  <SCORE.INTRA.DIHEDRAL>
0

>  <SCORE.INTRA.DIHEDRAL.0>
0

>  <SCORE.INTRA.POLAR>
0

>  <SCORE.INTRA.POLAR.0>
0

>  <SCORE.INTRA.REPUL>
0

>  <SCORE.INTRA.REPUL.0>
0

>  <SCORE.INTRA.SOLV>
0

>  <SCORE.INTRA.SOLV.lig_0>
-48.1583

>  <SCORE.INTRA.VDW>
0

>  <SCORE.INTRA.VDW.0>
0

>  <SCORE.INTRA.norm>
0

>  <SCORE.RESTR>
0

>  <SCORE.RESTR.CAVITY>
0

>  <SCORE.RESTR.norm>
0

>  <SCORE.SYSTEM>
0

>  <SCORE.SYSTEM.CONST>
0

>  <SCORE.SYSTEM.DIHEDRAL>
0

>  <SCORE.SYSTEM.SOLV>
0

>  <SCORE.SYSTEM.norm>
0

>  <SCORE.heavy>
12

>  <SCORE.norm>
-1.1742

>  <RMSD>
0.586

$$$$
ligand
 OpenBabel11021811503D
libRbt.so/2013.1/901 2013/11/27
 12 13  0  0  0  0  0  0  0  0999 V2000
    6.5797   17.5604    1.7292 C   0  0  0  0  0  0  0  0  0  0  0  0
    5.3298   16.4231    3.3352 C   0  0  0  0  0  0  0  0  0  0  0  0
    6.9912   17.6645    0.4687 N   0  0  0  0  0  0  0  0  0  0  0  0
    4.5428   15.4154    3.7280 N   0  0  0  0  0  0  0  0  0  0  0  0
    5.7757   16.5318    2.0766 N   0  0  0  0  0  0  0  0  0  0  0  0
    6.9482   18.4956    2.6326 N   0  0  0  0  0  0  0  0  0  0  0  0
    5.6524   18.2170    6.5516 N   0  0  0  0  0  0  0  0  0  0  0  0
    6.4841   19.2747    6.1526 C   0  0  0  0  0  0  0  0  0  0  0  0
    6.9302   19.3568    4.8128 N   0  0  0  0  0  0  0  0  0  0  0  0
    6.5319   18.4235    3.9216 C   0  0  0  0  0  0  0  0  0  0  0  0
    5.6939   17.3698    4.3006 C   0  0  0  0  0  0  0  0  0  0  0  0
    5.2428   17.2487    5.6136 C   0  0  0  0  0  0  0  0  0  0  0  0
  1  3  1  0  0  0  0
  1  5  1  0  0  0  0
  1  6  2  0  0  0  0
  2  5  2  0  0  0  0
  2 11  1  0  0  0  0
  2  4  1  0  0  0  0
  6 10  1  0  0  0  0
  7  8  2  0  0  0  0
  7 12  1  0  0  0  0
  8  9  1  0  0  0  0
  9 10  2  0  0  0  0
 10 11  1  0  0  0  0
 11 12  2  0  0  0  0
M  END
>  <CHROM.1>
6.06480425,17.66115955,3.74634464,-1.43425027,0.93362320,1.17673243

>  <Name>
ligand

>  <RI>
0

>  <Rbt.Current_Directory>
/home/itssahil/PROJECTS/Mol_Feturizer/New_Systems/rnas/4LX5

>  <Rbt.Executable>
rbdock ($Id: //depot/dev/client3/rdock/2013.1/src/exe/rbdock.cxx#4 $)

>  <Rbt.Library>
libRbt.so (2013.1, Build901 2013/11/27)

>  <Rbt.Parameter_File>
/export/apps/rDock/src/rDock_2013.1_src/data/scripts/dock_solv.prm

>  <Rbt.Receptor>
prm/pocket_docking_7.prm

>  <SCORE>
-14.0036

>  <SCORE.INTER>
-14.0036

>  <SCORE.INTER.CONST>
1

>  <SCORE.INTER.POLAR>
0

>  <SCORE.INTER.ROT>
0

>  <SCORE.INTER.SOLV>
18.5518

>  <SCORE.INTER.VDW>
-19.1197

>  <SCORE.INTER.norm>
-1.16697

>  <SCORE.INTRA>
0

>  <SCORE.INTRA.DIHEDRAL>
0

>  <SCORE.INTRA.DIHEDRAL.0>
0

>  <SCORE.INTRA.POLAR>
0

>  <SCORE.INTRA.POLAR.0>
0

>  <SCORE.INTRA.REPUL>
0

>  <SCORE.INTRA.REPUL.0>
0

>  <SCORE.INTRA.SOLV>
0

>  <SCORE.INTRA.SOLV.lig_0>
-48.1583

>  <SCORE.INTRA.VDW>
0

>  <SCORE.INTRA.VDW.0>
0

>  <SCORE.INTRA.norm>
0

>  <SCORE.RESTR>
0

>  <SCORE.RESTR.CAVITY>
0

>  <SCORE.RESTR.norm>
0

>  <SCORE.SYSTEM>
0

>  <SCORE.SYSTEM.CONST>
0

>  <SCORE.SYSTEM.DIHEDRAL>
0

>  <SCORE.SYSTEM.SOLV>
0

>  <SCORE.SYSTEM.norm>
0

>  <SCORE.heavy>
12

>  <SCORE.norm>
-1.16697

>  <RMSD>
0.588

$$$$
ligand
 OpenBabel11021811503D
libRbt.so/2013.1/901 2013/11/27
 12 13  0  0  0  0  0  0  0  0999 V2000
    6.6351   17.6068    1.8366 C   0  0  0  0  0  0  0  0  0  0  0  0
    5.3574   16.3859    3.3570 C   0  0  0  0  0  0  0  0  0  0  0  0
    7.0924   17.7612    0.5972 N   0  0  0  0  0  0  0  0  0  0  0  0
    4.5857   15.3448    3.6881 N   0  0  0  0  0  0  0  0  0  0  0  0
    5.8488   16.5457    2.1210 N   0  0  0  0  0  0  0  0  0  0  0  0
    6.9402   18.5240    2.7812 N   0  0  0  0  0  0  0  0  0  0  0  0
    5.5008   18.0887    6.6353 N   0  0  0  0  0  0  0  0  0  0  0  0
    6.3160   19.1812    6.3013 C   0  0  0  0  0  0  0  0  0  0  0  0
    6.8115   19.3170    4.9835 N   0  0  0  0  0  0  0  0  0  0  0  0
    6.4761   18.4006    4.0498 C   0  0  0  0  0  0  0  0  0  0  0  0
    5.6554   17.3125    4.3637 C   0  0  0  0  0  0  0  0  0  0  0  0
    5.1571   17.1384    5.6535 C   0  0  0  0  0  0  0  0  0  0  0  0
  1  3  1  0  0  0  0
  1  5  1  0  0  0  0
  1  6  2  0  0  0  0
  2  5  2  0  0  0  0
  2 11  1  0  0  0  0
  2  4  1  0  0  0  0
  6 10  1  0  0  0  0
  7  8  2  0  0  0  0
  7 12  1  0  0  0  0
  8  9  1  0  0  0  0
  9 10  2  0  0  0  0
 10 11  1  0  0  0  0
 11 12  2  0  0  0  0
M  END
>  <CHROM.1>
6.03893372,17.63107406,3.83359876,-1.35321179,0.94429557,1.14145221

>  <Name>
ligand

>  <RI>
0

>  <Rbt.Current_Directory>
/home/itssahil/PROJECTS/Mol_Feturizer/New_Systems/rnas/4LX5

>  <Rbt.Executable>
rbdock ($Id: //depot/dev/client3/rdock/2013.1/src/exe/rbdock.cxx#4 $)

>  <Rbt.Library>
libRbt.so (2013.1, Build901 2013/11/27)

>  <Rbt.Parameter_File>
/export/apps/rDock/src/rDock_2013.1_src/data/scripts/dock_solv.prm

>  <Rbt.Receptor>
prm/pocket_docking_3.prm

>  <SCORE>
-14.1144

>  <SCORE.INTER>
-14.1144

>  <SCORE.INTER.CONST>
1

>  <SCORE.INTER.POLAR>
0

>  <SCORE.INTER.ROT>
0

>  <SCORE.INTER.SOLV>
19.0085

>  <SCORE.INTER.VDW>
-19.3457

>  <SCORE.INTER.norm>
-1.1762

>  <SCORE.INTRA>
0

>  <SCORE.INTRA.DIHEDRAL>
0

>  <SCORE.INTRA.DIHEDRAL.0>
0

>  <SCORE.INTRA.POLAR>
0

>  <SCORE.INTRA.POLAR.0>
0

>  <SCORE.INTRA.REPUL>
0

>  <SCORE.INTRA.REPUL.0>
0

>  <SCORE.INTRA.SOLV>
0

>  <SCORE.INTRA.SOLV.lig_0>
-48.1583

>  <SCORE.INTRA.VDW>
0

>  <SCORE.INTRA.VDW.0>
0

>  <SCORE.INTRA.norm>
0

>  <SCORE.RESTR>
0

>  <SCORE.RESTR.CAVITY>
0

>  <SCORE.RESTR.norm>
0

>  <SCORE.SYSTEM>
0

>  <SCORE.SYSTEM.CONST>
0

>  <SCORE.SYSTEM.DIHEDRAL>
0

>  <SCORE.SYSTEM.SOLV>
0

>  <SCORE.SYSTEM.norm>
0

>  <SCORE.heavy>
12

>  <SCORE.norm>
-1.1762

>  <RMSD>
0.589

$$$$
ligand
 OpenBabel11021811503D
libRbt.so/2013.1/901 2013/11/27
 12 13  0  0  0  0  0  0  0  0999 V2000
    6.6641   17.6120    1.8246 C   0  0  0  0  0  0  0  0  0  0  0  0
    5.4104   16.3831    3.3586 C   0  0  0  0  0  0  0  0  0  0  0  0
    7.1145   17.7642    0.5825 N   0  0  0  0  0  0  0  0  0  0  0  0
    4.6558   15.3329    3.7002 N   0  0  0  0  0  0  0  0  0  0  0  0
    5.8949   16.5412    2.1196 N   0  0  0  0  0  0  0  0  0  0  0  0
    6.9585   18.5407    2.7614 N   0  0  0  0  0  0  0  0  0  0  0  0
    5.5397   18.1121    6.6238 N   0  0  0  0  0  0  0  0  0  0  0  0
    6.3370   19.2143    6.2788 C   0  0  0  0  0  0  0  0  0  0  0  0
    6.8256   19.3478    4.9582 N   0  0  0  0  0  0  0  0  0  0  0  0
    6.5009   18.4196    4.0325 C   0  0  0  0  0  0  0  0  0  0  0  0
    5.6979   17.3215    4.3574 C   0  0  0  0  0  0  0  0  0  0  0  0
    5.2069   17.1494    5.6503 C   0  0  0  0  0  0  0  0  0  0  0  0
  1  3  1  0  0  0  0
  1  5  1  0  0  0  0
  1  6  2  0  0  0  0
  2  5  2  0  0  0  0
  2 11  1  0  0  0  0
  2  4  1  0  0  0  0
  6 10  1  0  0  0  0
  7  8  2  0  0  0  0
  7 12  1  0  0  0  0
  8  9  1  0  0  0  0
  9 10  2  0  0  0  0
 10 11  1  0  0  0  0
 11 12  2  0  0  0  0
M  END
>  <CHROM.1>
6.07467814,17.64195805,3.82357038,-1.34784803,0.95957477,1.12973251

>  <Name>
ligand

>  <RI>
0

>  <Rbt.Current_Directory>
/home/itssahil/PROJECTS/Mol_Feturizer/New_Systems/rnas/4LX5

>  <Rbt.Executable>
rbdock ($Id: //depot/dev/client3/rdock/2013.1/src/exe/rbdock.cxx#4 $)

>  <Rbt.Library>
libRbt.so (2013.1, Build901 2013/11/27)

>  <Rbt.Parameter_File>
/export/apps/rDock/src/rDock_2013.1_src/data/scripts/dock_solv.prm

>  <Rbt.Receptor>
prm/pocket_docking_4.prm

>  <SCORE>
-14.098

>  <SCORE.INTER>
-14.098

>  <SCORE.INTER.CONST>
1

>  <SCORE.INTER.POLAR>
0

>  <SCORE.INTER.ROT>
0

>  <SCORE.INTER.SOLV>
19.2764

>  <SCORE.INTER.VDW>
-19.4241

>  <SCORE.INTER.norm>
-1.17483

>  <SCORE.INTRA>
0

>  <SCORE.INTRA.DIHEDRAL>
0

>  <SCORE.INTRA.DIHEDRAL.0>
0

>  <SCORE.INTRA.POLAR>
0

>  <SCORE.INTRA.POLAR.0>
0

>  <SCORE.INTRA.REPUL>
0

>  <SCORE.INTRA.REPUL.0>
0

>  <SCORE.INTRA.SOLV>
0

>  <SCORE.INTRA.SOLV.lig_0>
-48.1583

>  <SCORE.INTRA.VDW>
0

>  <SCORE.INTRA.VDW.0>
0

>  <SCORE.INTRA.norm>
0

>  <SCORE.RESTR>
0

>  <SCORE.RESTR.CAVITY>
0

>  <SCORE.RESTR.norm>
0

>  <SCORE.SYSTEM>
0

>  <SCORE.SYSTEM.CONST>
0

>  <SCORE.SYSTEM.DIHEDRAL>
0

>  <SCORE.SYSTEM.SOLV>
0

>  <SCORE.SYSTEM.norm>
0

>  <SCORE.heavy>
12

>  <SCORE.norm>
-1.17483

>  <RMSD>
0.590

$$$$
ligand
 OpenBabel11021811503D
libRbt.so/2013.1/901 2013/11/27
 12 13  0  0  0  0  0  0  0  0999 V2000
    6.6444   17.6068    1.8321 C   0  0  0  0  0  0  0  0  0  0  0  0
    5.3694   16.3920    3.3597 C   0  0  0  0  0  0  0  0  0  0  0  0
    7.1003   17.7556    0.5916 N   0  0  0  0  0  0  0  0  0  0  0  0
    4.5991   15.3517    3.6967 N   0  0  0  0  0  0  0  0  0  0  0  0
    5.8594   16.5462    2.1225 N   0  0  0  0  0  0  0  0  0  0  0  0
    6.9495   18.5288    2.7720 N   0  0  0  0  0  0  0  0  0  0  0  0
    5.5143   18.1109    6.6296 N   0  0  0  0  0  0  0  0  0  0  0  0
    6.3280   19.2025    6.2895 C   0  0  0  0  0  0  0  0  0  0  0  0
    6.8221   19.3324    4.9705 N   0  0  0  0  0  0  0  0  0  0  0  0
    6.4867   18.4112    4.0417 C   0  0  0  0  0  0  0  0  0  0  0  0
    5.6675   17.3237    4.3616 C   0  0  0  0  0  0  0  0  0  0  0  0
    5.1706   17.1554    5.6528 C   0  0  0  0  0  0  0  0  0  0  0  0
  1  3  1  0  0  0  0
  1  5  1  0  0  0  0
  1  6  2  0  0  0  0
  2  5  2  0  0  0  0
  2 11  1  0  0  0  0
  2  4  1  0  0  0  0
  6 10  1  0  0  0  0
  7  8  2  0  0  0  0
  7 12  1  0  0  0  0
  8  9  1  0  0  0  0
  9 10  2  0  0  0  0
 10 11  1  0  0  0  0
 11 12  2  0  0  0  0
M  END
>  <CHROM.1>
6.05013973,17.64012777,3.82964021,-1.35401203,0.94562745,1.13723943

>  <Name>
ligand

>  <RI>
0

>  <Rbt.Current_Directory>
/home/itssahil/PROJECTS/Mol_Feturizer/New_Systems/rnas/4LX5

>  <Rbt.Executable>
rbdock ($Id: //depot/dev/client3/rdock/2013.1/src/exe/rbdock.cxx#4 $)

>  <Rbt.Library>
libRbt.so (2013.1, Build901 2013/11/27)

>  <Rbt.Parameter_File>
/export/apps/rDock/src/rDock_2013.1_src/data/scripts/dock_solv.prm

>  <Rbt.Receptor>
prm/pocket_docking_4.prm

>  <SCORE>
-14.0815

>  <SCORE.INTER>
-14.0815

>  <SCORE.INTER.CONST>
1

>  <SCORE.INTER.POLAR>
0

>  <SCORE.INTER.ROT>
0

>  <SCORE.INTER.SOLV>
19.0467

>  <SCORE.INTER.VDW>
-19.3366

>  <SCORE.INTER.norm>
-1.17346

>  <SCORE.INTRA>
0

>  <SCORE.INTRA.DIHEDRAL>
0

>  <SCORE.INTRA.DIHEDRAL.0>
0

>  <SCORE.INTRA.POLAR>
0

>  <SCORE.INTRA.POLAR.0>
0

>  <SCORE.INTRA.REPUL>
0

>  <SCORE.INTRA.REPUL.0>
0

>  <SCORE.INTRA.SOLV>
0

>  <SCORE.INTRA.SOLV.lig_0>
-48.1583

>  <SCORE.INTRA.VDW>
0

>  <SCORE.INTRA.VDW.0>
0

>  <SCORE.INTRA.norm>
0

>  <SCORE.RESTR>
0

>  <SCORE.RESTR.CAVITY>
0

>  <SCORE.RESTR.norm>
0

>  <SCORE.SYSTEM>
0

>  <SCORE.SYSTEM.CONST>
0

>  <SCORE.SYSTEM.DIHEDRAL>
0

>  <SCORE.SYSTEM.SOLV>
0

>  <SCORE.SYSTEM.norm>
0

>  <SCORE.heavy>
12

>  <SCORE.norm>
-1.17346

>  <RMSD>
0.592

$$$$
ligand
 OpenBabel11021811503D
libRbt.so/2013.1/901 2013/11/27
 12 13  0  0  0  0  0  0  0  0999 V2000
    6.6528   17.6041    1.8425 C   0  0  0  0  0  0  0  0  0  0  0  0
    5.3715   16.3852    3.3615 C   0  0  0  0  0  0  0  0  0  0  0  0
    7.1154   17.7552    0.6048 N   0  0  0  0  0  0  0  0  0  0  0  0
    4.6012   15.3431    3.6929 N   0  0  0  0  0  0  0  0  0  0  0  0
    5.8682   16.5418    2.1272 N   0  0  0  0  0  0  0  0  0  0  0  0
    6.9508   18.5257    2.7852 N   0  0  0  0  0  0  0  0  0  0  0  0
    5.4947   18.1005    6.6341 N   0  0  0  0  0  0  0  0  0  0  0  0
    6.3083   19.1941    6.2999 C   0  0  0  0  0  0  0  0  0  0  0  0
    6.8096   19.3264    4.9839 N   0  0  0  0  0  0  0  0  0  0  0  0
    6.4811   18.4057    4.0520 C   0  0  0  0  0  0  0  0  0  0  0  0
    5.6621   17.3163    4.3662 C   0  0  0  0  0  0  0  0  0  0  0  0
    5.1583   17.1456    5.6543 C   0  0  0  0  0  0  0  0  0  0  0  0
  1  3  1  0  0  0  0
  1  5  1  0  0  0  0
  1  6  2  0  0  0  0
  2  5  2  0  0  0  0
  2 11  1  0  0  0  0
  2  4  1  0  0  0  0
  6 10  1  0  0  0  0
  7  8  2  0  0  0  0
  7 12  1  0  0  0  0
  8  9  1  0  0  0  0
  9 10  2  0  0  0  0
 10 11  1  0  0  0  0
 11 12  2  0  0  0  0
M  END
>  <CHROM.1>
6.04721141,17.63405619,3.83668451,-1.34394317,0.94492052,1.13023252

>  <Name>
ligand

>  <RI>
0

>  <Rbt.Current_Directory>
/home/itssahil/PROJECTS/Mol_Feturizer/New_Systems/rnas/4LX5

>  <Rbt.Executable>
rbdock ($Id: //depot/dev/client3/rdock/2013.1/src/exe/rbdock.cxx#4 $)

>  <Rbt.Library>
libRbt.so (2013.1, Build901 2013/11/27)

>  <Rbt.Parameter_File>
/export/apps/rDock/src/rDock_2013.1_src/data/scripts/dock_solv.prm

>  <Rbt.Receptor>
prm/pocket_docking_4.prm

>  <SCORE>
-14.1106

>  <SCORE.INTER>
-14.1106

>  <SCORE.INTER.CONST>
1

>  <SCORE.INTER.POLAR>
0

>  <SCORE.INTER.ROT>
0

>  <SCORE.INTER.SOLV>
19.0801

>  <SCORE.INTER.VDW>
-19.3671

>  <SCORE.INTER.norm>
-1.17588

>  <SCORE.INTRA>
0

>  <SCORE.INTRA.DIHEDRAL>
0

>  <SCORE.INTRA.DIHEDRAL.0>
0

>  <SCORE.INTRA.POLAR>
0

>  <SCORE.INTRA.POLAR.0>
0

>  <SCORE.INTRA.REPUL>
0

>  <SCORE.INTRA.REPUL.0>
0

>  <SCORE.INTRA.SOLV>
0

>  <SCORE.INTRA.SOLV.lig_0>
-48.1583

>  <SCORE.INTRA.VDW>
0

>  <SCORE.INTRA.VDW.0>
0

>  <SCORE.INTRA.norm>
0

>  <SCORE.RESTR>
0

>  <SCORE.RESTR.CAVITY>
0

>  <SCORE.RESTR.norm>
0

>  <SCORE.SYSTEM>
0

>  <SCORE.SYSTEM.CONST>
0

>  <SCORE.SYSTEM.DIHEDRAL>
0

>  <SCORE.SYSTEM.SOLV>
0

>  <SCORE.SYSTEM.norm>
0

>  <SCORE.heavy>
12

>  <SCORE.norm>
-1.17588

>  <RMSD>
0.592

$$$$
ligand
 OpenBabel11021811503D
libRbt.so/2013.1/901 2013/11/27
 12 13  0  0  0  0  0  0  0  0999 V2000
    6.6402   17.6070    1.8427 C   0  0  0  0  0  0  0  0  0  0  0  0
    5.3625   16.3873    3.3641 C   0  0  0  0  0  0  0  0  0  0  0  0
    7.0967   17.7609    0.6031 N   0  0  0  0  0  0  0  0  0  0  0  0
    4.5902   15.3469    3.6959 N   0  0  0  0  0  0  0  0  0  0  0  0
    5.8532   16.5465    2.1278 N   0  0  0  0  0  0  0  0  0  0  0  0
    6.9467   18.5240    2.7871 N   0  0  0  0  0  0  0  0  0  0  0  0
    5.5097   18.0903    6.6422 N   0  0  0  0  0  0  0  0  0  0  0  0
    6.3255   19.1820    6.3076 C   0  0  0  0  0  0  0  0  0  0  0  0
    6.8202   19.3173    4.9894 N   0  0  0  0  0  0  0  0  0  0  0  0
    6.4834   18.4011    4.0560 C   0  0  0  0  0  0  0  0  0  0  0  0
    5.6620   17.3137    4.3706 C   0  0  0  0  0  0  0  0  0  0  0  0
    5.1644   17.1402    5.6608 C   0  0  0  0  0  0  0  0  0  0  0  0
  1  3  1  0  0  0  0
  1  5  1  0  0  0  0
  1  6  2  0  0  0  0
  2  5  2  0  0  0  0
  2 11  1  0  0  0  0
  2  4  1  0  0  0  0
  6 10  1  0  0  0  0
  7  8  2  0  0  0  0
  7 12  1  0  0  0  0
  8  9  1  0  0  0  0
  9 10  2  0  0  0  0
 10 11  1  0  0  0  0
 11 12  2  0  0  0  0
M  END
>  <CHROM.1>
6.04541296,17.63190572,3.84020673,-1.35489573,0.94380522,1.14273053

>  <Name>
ligand

>  <RI>
0

>  <Rbt.Current_Directory>
/home/itssahil/PROJECTS/Mol_Feturizer/New_Systems/rnas/4LX5

>  <Rbt.Executable>
rbdock ($Id: //depot/dev/client3/rdock/2013.1/src/exe/rbdock.cxx#4 $)

>  <Rbt.Library>
libRbt.so (2013.1, Build901 2013/11/27)

>  <Rbt.Parameter_File>
/export/apps/rDock/src/rDock_2013.1_src/data/scripts/dock_solv.prm

>  <Rbt.Receptor>
prm/pocket_docking_4.prm

>  <SCORE>
-14.1101

>  <SCORE.INTER>
-14.1101

>  <SCORE.INTER.CONST>
1

>  <SCORE.INTER.POLAR>
0

>  <SCORE.INTER.ROT>
0

>  <SCORE.INTER.SOLV>
19.023

>  <SCORE.INTER.VDW>
-19.3477

>  <SCORE.INTER.norm>
-1.17584

>  <SCORE.INTRA>
0

>  <SCORE.INTRA.DIHEDRAL>
0

>  <SCORE.INTRA.DIHEDRAL.0>
0

>  <SCORE.INTRA.POLAR>
0

>  <SCORE.INTRA.POLAR.0>
0

>  <SCORE.INTRA.REPUL>
0

>  <SCORE.INTRA.REPUL.0>
0

>  <SCORE.INTRA.SOLV>
0

>  <SCORE.INTRA.SOLV.lig_0>
-48.1583

>  <SCORE.INTRA.VDW>
0

>  <SCORE.INTRA.VDW.0>
0

>  <SCORE.INTRA.norm>
0

>  <SCORE.RESTR>
0

>  <SCORE.RESTR.CAVITY>
0

>  <SCORE.RESTR.norm>
0

>  <SCORE.SYSTEM>
0

>  <SCORE.SYSTEM.CONST>
0

>  <SCORE.SYSTEM.DIHEDRAL>
0

>  <SCORE.SYSTEM.SOLV>
0

>  <SCORE.SYSTEM.norm>
0

>  <SCORE.heavy>
12

>  <SCORE.norm>
-1.17584

>  <RMSD>
0.595

$$$$
ligand
 OpenBabel11021811503D
libRbt.so/2013.1/901 2013/11/27
 12 13  0  0  0  0  0  0  0  0999 V2000
    6.6572   17.6043    1.8470 C   0  0  0  0  0  0  0  0  0  0  0  0
    5.3772   16.3828    3.3651 C   0  0  0  0  0  0  0  0  0  0  0  0
    7.1199   17.7566    0.6094 N   0  0  0  0  0  0  0  0  0  0  0  0
    4.6085   15.3394    3.6959 N   0  0  0  0  0  0  0  0  0  0  0  0
    5.8741   16.5406    2.1310 N   0  0  0  0  0  0  0  0  0  0  0  0
    6.9535   18.5259    2.7901 N   0  0  0  0  0  0  0  0  0  0  0  0
    5.4968   18.0971    6.6384 N   0  0  0  0  0  0  0  0  0  0  0  0
    6.3089   19.1921    6.3048 C   0  0  0  0  0  0  0  0  0  0  0  0
    6.8103   19.3256    4.9890 N   0  0  0  0  0  0  0  0  0  0  0  0
    6.4836   18.4047    4.0568 C   0  0  0  0  0  0  0  0  0  0  0  0
    5.6662   17.3140    4.3702 C   0  0  0  0  0  0  0  0  0  0  0  0
    5.1621   17.1420    5.6581 C   0  0  0  0  0  0  0  0  0  0  0  0
  1  3  1  0  0  0  0
  1  5  1  0  0  0  0
  1  6  2  0  0  0  0
  2  5  2  0  0  0  0
  2 11  1  0  0  0  0
  2  4  1  0  0  0  0
  6 10  1  0  0  0  0
  7  8  2  0  0  0  0
  7 12  1  0  0  0  0
  8  9  1  0  0  0  0
  9 10  2  0  0  0  0
 10 11  1  0  0  0  0
 11 12  2  0  0  0  0
M  END
>  <CHROM.1>
6.05092032,17.63252390,3.84096371,-1.34232915,0.94617671,1.12930096

>  <Name>
ligand

>  <RI>
0

>  <Rbt.Current_Directory>
/home/itssahil/PROJECTS/Mol_Feturizer/New_Systems/rnas/4LX5

>  <Rbt.Executable>
rbdock ($Id: //depot/dev/client3/rdock/2013.1/src/exe/rbdock.cxx#4 $)

>  <Rbt.Library>
libRbt.so (2013.1, Build901 2013/11/27)

>  <Rbt.Parameter_File>
/export/apps/rDock/src/rDock_2013.1_src/data/scripts/dock_solv.prm

>  <Rbt.Receptor>
prm/pocket_docking_6.prm

>  <SCORE>
-14.1058

>  <SCORE.INTER>
-14.1058

>  <SCORE.INTER.CONST>
1

>  <SCORE.INTER.POLAR>
0

>  <SCORE.INTER.ROT>
0

>  <SCORE.INTER.SOLV>
19.1141

>  <SCORE.INTER.VDW>
-19.3752

>  <SCORE.INTER.norm>
-1.17548

>  <SCORE.INTRA>
0

>  <SCORE.INTRA.DIHEDRAL>
0

>  <SCORE.INTRA.DIHEDRAL.0>
0

>  <SCORE.INTRA.POLAR>
0

>  <SCORE.INTRA.POLAR.0>
0

>  <SCORE.INTRA.REPUL>
0

>  <SCORE.INTRA.REPUL.0>
0

>  <SCORE.INTRA.SOLV>
0

>  <SCORE.INTRA.SOLV.lig_0>
-48.1583

>  <SCORE.INTRA.VDW>
0

>  <SCORE.INTRA.VDW.0>
0

>  <SCORE.INTRA.norm>
0

>  <SCORE.RESTR>
0

>  <SCORE.RESTR.CAVITY>
0

>  <SCORE.RESTR.norm>
0

>  <SCORE.SYSTEM>
0

>  <SCORE.SYSTEM.CONST>
0

>  <SCORE.SYSTEM.DIHEDRAL>
0

>  <SCORE.SYSTEM.SOLV>
0

>  <SCORE.SYSTEM.norm>
0

>  <SCORE.heavy>
12

>  <SCORE.norm>
-1.17548

>  <RMSD>
0.595

$$$$
ligand
 OpenBabel11021811503D
libRbt.so/2013.1/901 2013/11/27
 12 13  0  0  0  0  0  0  0  0999 V2000
    6.6371   17.6223    1.8282 C   0  0  0  0  0  0  0  0  0  0  0  0
    5.3750   16.3989    3.3596 C   0  0  0  0  0  0  0  0  0  0  0  0
    7.0854   17.7762    0.5855 N   0  0  0  0  0  0  0  0  0  0  0  0
    4.6101   15.3551    3.6980 N   0  0  0  0  0  0  0  0  0  0  0  0
    5.8574   16.5583    2.1200 N   0  0  0  0  0  0  0  0  0  0  0  0
    6.9445   18.5427    2.7690 N   0  0  0  0  0  0  0  0  0  0  0  0
    5.5329   18.1090    6.6335 N   0  0  0  0  0  0  0  0  0  0  0  0
    6.3410   19.2044    6.2918 C   0  0  0  0  0  0  0  0  0  0  0  0
    6.8270   19.3396    4.9704 N   0  0  0  0  0  0  0  0  0  0  0  0
    6.4894   18.4199    4.0409 C   0  0  0  0  0  0  0  0  0  0  0  0
    5.6757   17.3288    4.3624 C   0  0  0  0  0  0  0  0  0  0  0  0
    5.1867   17.1552    5.6559 C   0  0  0  0  0  0  0  0  0  0  0  0
  1  3  1  0  0  0  0
  1  5  1  0  0  0  0
  1  6  2  0  0  0  0
  2  5  2  0  0  0  0
  2 11  1  0  0  0  0
  2  4  1  0  0  0  0
  6 10  1  0  0  0  0
  7  8  2  0  0  0  0
  7 12  1  0  0  0  0
  8  9  1  0  0  0  0
  9 10  2  0  0  0  0
 10 11  1  0  0  0  0
 11 12  2  0  0  0  0
M  END
>  <CHROM.1>
6.05422184,17.64800879,3.82916340,-1.36055244,0.95106764,1.14539728

>  <Name>
ligand

>  <RI>
0

>  <Rbt.Current_Directory>
/home/itssahil/PROJECTS/Mol_Feturizer/New_Systems/rnas/4LX5

>  <Rbt.Executable>
rbdock ($Id: //depot/dev/client3/rdock/2013.1/src/exe/rbdock.cxx#4 $)

>  <Rbt.Library>
libRbt.so (2013.1, Build901 2013/11/27)

>  <Rbt.Parameter_File>
/export/apps/rDock/src/rDock_2013.1_src/data/scripts/dock_solv.prm

>  <Rbt.Receptor>
prm/pocket_docking_3.prm

>  <SCORE>
-14.1076

>  <SCORE.INTER>
-14.1076

>  <SCORE.INTER.CONST>
1

>  <SCORE.INTER.POLAR>
0

>  <SCORE.INTER.ROT>
0

>  <SCORE.INTER.SOLV>
19.0829

>  <SCORE.INTER.VDW>
-19.366

>  <SCORE.INTER.norm>
-1.17563

>  <SCORE.INTRA>
0

>  <SCORE.INTRA.DIHEDRAL>
0

>  <SCORE.INTRA.DIHEDRAL.0>
0

>  <SCORE.INTRA.POLAR>
0

>  <SCORE.INTRA.POLAR.0>
0

>  <SCORE.INTRA.REPUL>
0

>  <SCORE.INTRA.REPUL.0>
0

>  <SCORE.INTRA.SOLV>
0

>  <SCORE.INTRA.SOLV.lig_0>
-48.1583

>  <SCORE.INTRA.VDW>
0

>  <SCORE.INTRA.VDW.0>
0

>  <SCORE.INTRA.norm>
0

>  <SCORE.RESTR>
0

>  <SCORE.RESTR.CAVITY>
0

>  <SCORE.RESTR.norm>
0

>  <SCORE.SYSTEM>
0

>  <SCORE.SYSTEM.CONST>
0

>  <SCORE.SYSTEM.DIHEDRAL>
0

>  <SCORE.SYSTEM.SOLV>
0

>  <SCORE.SYSTEM.norm>
0

>  <SCORE.heavy>
12

>  <SCORE.norm>
-1.17563

>  <RMSD>
0.596

$$$$
ligand
 OpenBabel11021811503D
libRbt.so/2013.1/901 2013/11/27
 12 13  0  0  0  0  0  0  0  0999 V2000
    6.6316   17.6209    1.8254 C   0  0  0  0  0  0  0  0  0  0  0  0
    5.3728   16.3980    3.3599 C   0  0  0  0  0  0  0  0  0  0  0  0
    7.0763   17.7750    0.5815 N   0  0  0  0  0  0  0  0  0  0  0  0
    4.6079   15.3548    3.7001 N   0  0  0  0  0  0  0  0  0  0  0  0
    5.8517   16.5576    2.1190 N   0  0  0  0  0  0  0  0  0  0  0  0
    6.9426   18.5406    2.7657 N   0  0  0  0  0  0  0  0  0  0  0  0
    5.5419   18.1064    6.6341 N   0  0  0  0  0  0  0  0  0  0  0  0
    6.3501   19.2012    6.2907 C   0  0  0  0  0  0  0  0  0  0  0  0
    6.8324   19.3366    4.9679 N   0  0  0  0  0  0  0  0  0  0  0  0
    6.4911   18.4176    4.0389 C   0  0  0  0  0  0  0  0  0  0  0  0
    5.6773   17.3272    4.3623 C   0  0  0  0  0  0  0  0  0  0  0  0
    5.1920   17.1534    5.6572 C   0  0  0  0  0  0  0  0  0  0  0  0
  1  3  1  0  0  0  0
  1  5  1  0  0  0  0
  1  6  2  0  0  0  0
  2  5  2  0  0  0  0
  2 11  1  0  0  0  0
  2  4  1  0  0  0  0
  6 10  1  0  0  0  0
  7  8  2  0  0  0  0
  7 12  1  0  0  0  0
  8  9  1  0  0  0  0
  9 10  2  0  0  0  0
 10 11  1  0  0  0  0
 11 12  2  0  0  0  0
M  END
>  <CHROM.1>
6.05458621,17.64624491,3.82810348,-1.36583342,0.95139950,1.15017225

>  <Name>
ligand

>  <RI>
0

>  <Rbt.Current_Directory>
/home/itssahil/PROJECTS/Mol_Feturizer/New_Systems/rnas/4LX5

>  <Rbt.Executable>
rbdock ($Id: //depot/dev/client3/rdock/2013.1/src/exe/rbdock.cxx#4 $)

>  <Rbt.Library>
libRbt.so (2013.1, Build901 2013/11/27)

>  <Rbt.Parameter_File>
/export/apps/rDock/src/rDock_2013.1_src/data/scripts/dock_solv.prm

>  <Rbt.Receptor>
prm/pocket_docking_5.prm

>  <SCORE>
-14.1061

>  <SCORE.INTER>
-14.1061

>  <SCORE.INTER.CONST>
1

>  <SCORE.INTER.POLAR>
0

>  <SCORE.INTER.ROT>
0

>  <SCORE.INTER.SOLV>
19.0652

>  <SCORE.INTER.VDW>
-19.3591

>  <SCORE.INTER.norm>
-1.17551

>  <SCORE.INTRA>
0

>  <SCORE.INTRA.DIHEDRAL>
0

>  <SCORE.INTRA.DIHEDRAL.0>
0

>  <SCORE.INTRA.POLAR>
0

>  <SCORE.INTRA.POLAR.0>
0

>  <SCORE.INTRA.REPUL>
0

>  <SCORE.INTRA.REPUL.0>
0

>  <SCORE.INTRA.SOLV>
0

>  <SCORE.INTRA.SOLV.lig_0>
-48.1583

>  <SCORE.INTRA.VDW>
0

>  <SCORE.INTRA.VDW.0>
0

>  <SCORE.INTRA.norm>
0

>  <SCORE.RESTR>
0

>  <SCORE.RESTR.CAVITY>
0

>  <SCORE.RESTR.norm>
0

>  <SCORE.SYSTEM>
0

>  <SCORE.SYSTEM.CONST>
0

>  <SCORE.SYSTEM.DIHEDRAL>
0

>  <SCORE.SYSTEM.SOLV>
0

>  <SCORE.SYSTEM.norm>
0

>  <SCORE.heavy>
12

>  <SCORE.norm>
-1.17551

>  <RMSD>
0.596

$$$$
ligand
 OpenBabel11021811503D
libRbt.so/2013.1/901 2013/11/27
 12 13  0  0  0  0  0  0  0  0999 V2000
    6.6253   17.5844    1.8391 C   0  0  0  0  0  0  0  0  0  0  0  0
    5.3808   16.3533    3.3788 C   0  0  0  0  0  0  0  0  0  0  0  0
    7.0747   17.7341    0.5963 N   0  0  0  0  0  0  0  0  0  0  0  0
    4.6341   15.2991    3.7253 N   0  0  0  0  0  0  0  0  0  0  0  0
    5.8643   16.5093    2.1392 N   0  0  0  0  0  0  0  0  0  0  0  0
    6.9127   18.5197    2.7715 N   0  0  0  0  0  0  0  0  0  0  0  0
    5.4967   18.0986    6.6358 N   0  0  0  0  0  0  0  0  0  0  0  0
    6.2857   19.2051    6.2857 C   0  0  0  0  0  0  0  0  0  0  0  0
    6.7735   19.3361    4.9645 N   0  0  0  0  0  0  0  0  0  0  0  0
    6.4558   18.4012    4.0432 C   0  0  0  0  0  0  0  0  0  0  0  0
    5.6611   17.2986    4.3732 C   0  0  0  0  0  0  0  0  0  0  0  0
    5.1712   17.1289    5.6668 C   0  0  0  0  0  0  0  0  0  0  0  0
  1  3  1  0  0  0  0
  1  5  1  0  0  0  0
  1  6  2  0  0  0  0
  2  5  2  0  0  0  0
  2 11  1  0  0  0  0
  2  4  1  0  0  0  0
  6 10  1  0  0  0  0
  7  8  2  0  0  0  0
  7 12  1  0  0  0  0
  8  9  1  0  0  0  0
  9 10  2  0  0  0  0
 10 11  1  0  0  0  0
 11 12  2  0  0  0  0
M  END
>  <CHROM.1>
6.03551013,17.61933198,3.83789470,-1.34201709,0.96632921,1.12023986

>  <Name>
ligand

>  <RI>
0

>  <Rbt.Current_Directory>
/home/itssahil/PROJECTS/Mol_Feturizer/New_Systems/rnas/4LX5

>  <Rbt.Executable>
rbdock ($Id: //depot/dev/client3/rdock/2013.1/src/exe/rbdock.cxx#4 $)

>  <Rbt.Library>
libRbt.so (2013.1, Build901 2013/11/27)

>  <Rbt.Parameter_File>
/export/apps/rDock/src/rDock_2013.1_src/data/scripts/dock_solv.prm

>  <Rbt.Receptor>
prm/pocket_docking_3.prm

>  <SCORE>
-14.071

>  <SCORE.INTER>
-14.071

>  <SCORE.INTER.CONST>
1

>  <SCORE.INTER.POLAR>
0

>  <SCORE.INTER.ROT>
0

>  <SCORE.INTER.SOLV>
19.2213

>  <SCORE.INTER.VDW>
-19.3877

>  <SCORE.INTER.norm>
-1.17258

>  <SCORE.INTRA>
0

>  <SCORE.INTRA.DIHEDRAL>
0

>  <SCORE.INTRA.DIHEDRAL.0>
0

>  <SCORE.INTRA.POLAR>
0

>  <SCORE.INTRA.POLAR.0>
0

>  <SCORE.INTRA.REPUL>
0

>  <SCORE.INTRA.REPUL.0>
0

>  <SCORE.INTRA.SOLV>
0

>  <SCORE.INTRA.SOLV.lig_0>
-48.1583

>  <SCORE.INTRA.VDW>
0

>  <SCORE.INTRA.VDW.0>
0

>  <SCORE.INTRA.norm>
0

>  <SCORE.RESTR>
0

>  <SCORE.RESTR.CAVITY>
0

>  <SCORE.RESTR.norm>
0

>  <SCORE.SYSTEM>
0

>  <SCORE.SYSTEM.CONST>
0

>  <SCORE.SYSTEM.DIHEDRAL>
0

>  <SCORE.SYSTEM.SOLV>
0

>  <SCORE.SYSTEM.norm>
0

>  <SCORE.heavy>
12

>  <SCORE.norm>
-1.17258

>  <RMSD>
0.597

$$$$
ligand
 OpenBabel11021811503D
libRbt.so/2013.1/901 2013/11/27
 12 13  0  0  0  0  0  0  0  0999 V2000
    6.6402   17.6193    1.8288 C   0  0  0  0  0  0  0  0  0  0  0  0
    5.3786   16.3965    3.3612 C   0  0  0  0  0  0  0  0  0  0  0  0
    7.0891   17.7718    0.5862 N   0  0  0  0  0  0  0  0  0  0  0  0
    4.6151   15.3522    3.7008 N   0  0  0  0  0  0  0  0  0  0  0  0
    5.8617   16.5546    2.1218 N   0  0  0  0  0  0  0  0  0  0  0  0
    6.9454   18.5417    2.7683 N   0  0  0  0  0  0  0  0  0  0  0  0
    5.5315   18.1122    6.6324 N   0  0  0  0  0  0  0  0  0  0  0  0
    6.3383   19.2082    6.2896 C   0  0  0  0  0  0  0  0  0  0  0  0
    6.8251   19.3420    4.9683 N   0  0  0  0  0  0  0  0  0  0  0  0
    6.4896   18.4203    4.0400 C   0  0  0  0  0  0  0  0  0  0  0  0
    5.6772   17.3285    4.3628 C   0  0  0  0  0  0  0  0  0  0  0  0
    5.1875   17.1563    5.6562 C   0  0  0  0  0  0  0  0  0  0  0  0
  1  3  1  0  0  0  0
  1  5  1  0  0  0  0
  1  6  2  0  0  0  0
  2  5  2  0  0  0  0
  2 11  1  0  0  0  0
  2  4  1  0  0  0  0
  6 10  1  0  0  0  0
  7  8  2  0  0  0  0
  7 12  1  0  0  0  0
  8  9  1  0  0  0  0
  9 10  2  0  0  0  0
 10 11  1  0  0  0  0
 11 12  2  0  0  0  0
M  END
>  <CHROM.1>
6.05566553,17.64740840,3.82926238,-1.35830400,0.95208279,1.14192583

>  <Name>
ligand

>  <RI>
0

>  <Rbt.Current_Directory>
/home/itssahil/PROJECTS/Mol_Feturizer/New_Systems/rnas/4LX5

>  <Rbt.Executable>
rbdock ($Id: //depot/dev/client3/rdock/2013.1/src/exe/rbdock.cxx#4 $)

>  <Rbt.Library>
libRbt.so (2013.1, Build901 2013/11/27)

>  <Rbt.Parameter_File>
/export/apps/rDock/src/rDock_2013.1_src/data/scripts/dock_solv.prm

>  <Rbt.Receptor>
prm/pocket_docking_6.prm

>  <SCORE>
-14.1079

>  <SCORE.INTER>
-14.1079

>  <SCORE.INTER.CONST>
1

>  <SCORE.INTER.POLAR>
0

>  <SCORE.INTER.ROT>
0

>  <SCORE.INTER.SOLV>
19.1046

>  <SCORE.INTER.VDW>
-19.3735

>  <SCORE.INTER.norm>
-1.17566

>  <SCORE.INTRA>
0

>  <SCORE.INTRA.DIHEDRAL>
0

>  <SCORE.INTRA.DIHEDRAL.0>
0

>  <SCORE.INTRA.POLAR>
0

>  <SCORE.INTRA.POLAR.0>
0

>  <SCORE.INTRA.REPUL>
0

>  <SCORE.INTRA.REPUL.0>
0

>  <SCORE.INTRA.SOLV>
0

>  <SCORE.INTRA.SOLV.lig_0>
-48.1583

>  <SCORE.INTRA.VDW>
0

>  <SCORE.INTRA.VDW.0>
0

>  <SCORE.INTRA.norm>
0

>  <SCORE.RESTR>
0

>  <SCORE.RESTR.CAVITY>
0

>  <SCORE.RESTR.norm>
0

>  <SCORE.SYSTEM>
0

>  <SCORE.SYSTEM.CONST>
0

>  <SCORE.SYSTEM.DIHEDRAL>
0

>  <SCORE.SYSTEM.SOLV>
0

>  <SCORE.SYSTEM.norm>
0

>  <SCORE.heavy>
12

>  <SCORE.norm>
-1.17566

>  <RMSD>
0.597

$$$$
ligand
 OpenBabel11021811503D
libRbt.so/2013.1/901 2013/11/27
 12 13  0  0  0  0  0  0  0  0999 V2000
    6.6398   17.6185    1.8291 C   0  0  0  0  0  0  0  0  0  0  0  0
    5.3800   16.3958    3.3630 C   0  0  0  0  0  0  0  0  0  0  0  0
    7.0881   17.7705    0.5862 N   0  0  0  0  0  0  0  0  0  0  0  0
    4.6173   15.3511    3.7036 N   0  0  0  0  0  0  0  0  0  0  0  0
    5.8624   16.5535    2.1232 N   0  0  0  0  0  0  0  0  0  0  0  0
    6.9449   18.5418    2.7678 N   0  0  0  0  0  0  0  0  0  0  0  0
    5.5332   18.1139    6.6329 N   0  0  0  0  0  0  0  0  0  0  0  0
    6.3389   19.2103    6.2890 C   0  0  0  0  0  0  0  0  0  0  0  0
    6.8251   19.3435    4.9674 N   0  0  0  0  0  0  0  0  0  0  0  0
    6.4897   18.4209    4.0399 C   0  0  0  0  0  0  0  0  0  0  0  0
    5.6783   17.3288    4.3638 C   0  0  0  0  0  0  0  0  0  0  0  0
    5.1894   17.1571    5.6575 C   0  0  0  0  0  0  0  0  0  0  0  0
  1  3  1  0  0  0  0
  1  5  1  0  0  0  0
  1  6  2  0  0  0  0
  2  5  2  0  0  0  0
  2 11  1  0  0  0  0
  2  4  1  0  0  0  0
  6 10  1  0  0  0  0
  7  8  2  0  0  0  0
  7 12  1  0  0  0  0
  8  9  1  0  0  0  0
  9 10  2  0  0  0  0
 10 11  1  0  0  0  0
 11 12  2  0  0  0  0
M  END
>  <CHROM.1>
6.05630044,17.64754598,3.82985673,-1.35853681,0.95297153,1.14142717

>  <Name>
ligand

>  <RI>
0

>  <Rbt.Current_Directory>
/home/itssahil/PROJECTS/Mol_Feturizer/New_Systems/rnas/4LX5

>  <Rbt.Executable>
rbdock ($Id: //depot/dev/client3/rdock/2013.1/src/exe/rbdock.cxx#4 $)

>  <Rbt.Library>
libRbt.so (2013.1, Build901 2013/11/27)

>  <Rbt.Parameter_File>
/export/apps/rDock/src/rDock_2013.1_src/data/scripts/dock_solv.prm

>  <Rbt.Receptor>
prm/blind_docking_80.prm

>  <SCORE>
-14.1072

>  <SCORE.INTER>
-14.1072

>  <SCORE.INTER.CONST>
1

>  <SCORE.INTER.POLAR>
0

>  <SCORE.INTER.ROT>
0

>  <SCORE.INTER.SOLV>
19.1129

>  <SCORE.INTER.VDW>
-19.3757

>  <SCORE.INTER.norm>
-1.1756

>  <SCORE.INTRA>
0

>  <SCORE.INTRA.DIHEDRAL>
0

>  <SCORE.INTRA.DIHEDRAL.0>
0

>  <SCORE.INTRA.POLAR>
0

>  <SCORE.INTRA.POLAR.0>
0

>  <SCORE.INTRA.REPUL>
0

>  <SCORE.INTRA.REPUL.0>
0

>  <SCORE.INTRA.SOLV>
0

>  <SCORE.INTRA.SOLV.lig_0>
-48.1583

>  <SCORE.INTRA.VDW>
0

>  <SCORE.INTRA.VDW.0>
0

>  <SCORE.INTRA.norm>
0

>  <SCORE.RESTR>
0

>  <SCORE.RESTR.CAVITY>
0

>  <SCORE.RESTR.norm>
0

>  <SCORE.SYSTEM>
0

>  <SCORE.SYSTEM.CONST>
0

>  <SCORE.SYSTEM.DIHEDRAL>
0

>  <SCORE.SYSTEM.SOLV>
0

>  <SCORE.SYSTEM.norm>
0

>  <SCORE.heavy>
12

>  <SCORE.norm>
-1.1756

>  <RMSD>
0.598

$$$$
ligand
 OpenBabel11021811503D
libRbt.so/2013.1/901 2013/11/27
 12 13  0  0  0  0  0  0  0  0999 V2000
    6.6470   17.6190    1.8319 C   0  0  0  0  0  0  0  0  0  0  0  0
    5.3851   16.3966    3.3644 C   0  0  0  0  0  0  0  0  0  0  0  0
    7.0981   17.7699    0.5899 N   0  0  0  0  0  0  0  0  0  0  0  0
    4.6233   15.3512    3.7046 N   0  0  0  0  0  0  0  0  0  0  0  0
    5.8704   16.5532    2.1256 N   0  0  0  0  0  0  0  0  0  0  0  0
    6.9482   18.5442    2.7700 N   0  0  0  0  0  0  0  0  0  0  0  0
    5.5273   18.1197    6.6322 N   0  0  0  0  0  0  0  0  0  0  0  0
    6.3322   19.2169    6.2887 C   0  0  0  0  0  0  0  0  0  0  0  0
    6.8215   19.3490    4.9681 N   0  0  0  0  0  0  0  0  0  0  0  0
    6.4900   18.4244    4.0411 C   0  0  0  0  0  0  0  0  0  0  0  0
    5.6794   17.3315    4.3645 C   0  0  0  0  0  0  0  0  0  0  0  0
    5.1875   17.1609    5.6573 C   0  0  0  0  0  0  0  0  0  0  0  0
  1  3  1  0  0  0  0
  1  5  1  0  0  0  0
  1  6  2  0  0  0  0
  2  5  2  0  0  0  0
  2 11  1  0  0  0  0
  2  4  1  0  0  0  0
  6 10  1  0  0  0  0
  7  8  2  0  0  0  0
  7 12  1  0  0  0  0
  8  9  1  0  0  0  0
  9 10  2  0  0  0  0
 10 11  1  0  0  0  0
 11 12  2  0  0  0  0
M  END
>  <CHROM.1>
6.05829557,17.65009829,3.83111883,-1.35341267,0.95332692,1.13578223

>  <Name>
ligand

>  <RI>
0

>  <Rbt.Current_Directory>
/home/itssahil/PROJECTS/Mol_Feturizer/New_Systems/rnas/4LX5

>  <Rbt.Executable>
rbdock ($Id: //depot/dev/client3/rdock/2013.1/src/exe/rbdock.cxx#4 $)

>  <Rbt.Library>
libRbt.so (2013.1, Build901 2013/11/27)

>  <Rbt.Parameter_File>
/export/apps/rDock/src/rDock_2013.1_src/data/scripts/dock_solv.prm

>  <Rbt.Receptor>
prm/pocket_docking_5.prm

>  <SCORE>
-14.1058

>  <SCORE.INTER>
-14.1058

>  <SCORE.INTER.CONST>
1

>  <SCORE.INTER.POLAR>
0

>  <SCORE.INTER.ROT>
0

>  <SCORE.INTER.SOLV>
19.1427

>  <SCORE.INTER.VDW>
-19.3848

>  <SCORE.INTER.norm>
-1.17549

>  <SCORE.INTRA>
0

>  <SCORE.INTRA.DIHEDRAL>
0

>  <SCORE.INTRA.DIHEDRAL.0>
0

>  <SCORE.INTRA.POLAR>
0

>  <SCORE.INTRA.POLAR.0>
0

>  <SCORE.INTRA.REPUL>
0

>  <SCORE.INTRA.REPUL.0>
0

>  <SCORE.INTRA.SOLV>
0

>  <SCORE.INTRA.SOLV.lig_0>
-48.1583

>  <SCORE.INTRA.VDW>
0

>  <SCORE.INTRA.VDW.0>
0

>  <SCORE.INTRA.norm>
0

>  <SCORE.RESTR>
0

>  <SCORE.RESTR.CAVITY>
0

>  <SCORE.RESTR.norm>
0

>  <SCORE.SYSTEM>
0

>  <SCORE.SYSTEM.CONST>
0

>  <SCORE.SYSTEM.DIHEDRAL>
0

>  <SCORE.SYSTEM.SOLV>
0

>  <SCORE.SYSTEM.norm>
0

>  <SCORE.heavy>
12

>  <SCORE.norm>
-1.17549

>  <RMSD>
0.599

$$$$
ligand
 OpenBabel11021811503D
libRbt.so/2013.1/901 2013/11/27
 12 13  0  0  0  0  0  0  0  0999 V2000
    6.6922   17.6582    1.8449 C   0  0  0  0  0  0  0  0  0  0  0  0
    5.4263   16.4089    3.3521 C   0  0  0  0  0  0  0  0  0  0  0  0
    7.1544   17.8258    0.6091 N   0  0  0  0  0  0  0  0  0  0  0  0
    4.6706   15.3533    3.6740 N   0  0  0  0  0  0  0  0  0  0  0  0
    5.9225   16.5825    2.1199 N   0  0  0  0  0  0  0  0  0  0  0  0
    6.9755   18.5764    2.7953 N   0  0  0  0  0  0  0  0  0  0  0  0
    5.5200   18.0999    6.6383 N   0  0  0  0  0  0  0  0  0  0  0  0
    6.3182   19.2077    6.3141 C   0  0  0  0  0  0  0  0  0  0  0  0
    6.8195   19.3576    5.0000 N   0  0  0  0  0  0  0  0  0  0  0  0
    6.5057   18.4396    4.0604 C   0  0  0  0  0  0  0  0  0  0  0  0
    5.7020   17.3362    4.3645 C   0  0  0  0  0  0  0  0  0  0  0  0
    5.1987   17.1480    5.6505 C   0  0  0  0  0  0  0  0  0  0  0  0
  1  3  1  0  0  0  0
  1  5  1  0  0  0  0
  1  6  2  0  0  0  0
  2  5  2  0  0  0  0
  2 11  1  0  0  0  0
  2  4  1  0  0  0  0
  6 10  1  0  0  0  0
  7  8  2  0  0  0  0
  7 12  1  0  0  0  0
  8  9  1  0  0  0  0
  9 10  2  0  0  0  0
 10 11  1  0  0  0  0
 11 12  2  0  0  0  0
M  END
>  <CHROM.1>
6.08327350,17.66360905,3.83821856,-1.33094051,0.95726903,1.12757481

>  <Name>
ligand

>  <RI>
0

>  <Rbt.Current_Directory>
/home/itssahil/PROJECTS/Mol_Feturizer/New_Systems/rnas/4LX5

>  <Rbt.Executable>
rbdock ($Id: //depot/dev/client3/rdock/2013.1/src/exe/rbdock.cxx#4 $)

>  <Rbt.Library>
libRbt.so (2013.1, Build901 2013/11/27)

>  <Rbt.Parameter_File>
/export/apps/rDock/src/rDock_2013.1_src/data/scripts/dock_solv.prm

>  <Rbt.Receptor>
prm/blind_docking_60.prm

>  <SCORE>
-14.1053

>  <SCORE.INTER>
-14.1053

>  <SCORE.INTER.CONST>
1

>  <SCORE.INTER.POLAR>
0

>  <SCORE.INTER.ROT>
0

>  <SCORE.INTER.SOLV>
19.3826

>  <SCORE.INTER.VDW>
-19.4644

>  <SCORE.INTER.norm>
-1.17545

>  <SCORE.INTRA>
0

>  <SCORE.INTRA.DIHEDRAL>
0

>  <SCORE.INTRA.DIHEDRAL.0>
0

>  <SCORE.INTRA.POLAR>
0

>  <SCORE.INTRA.POLAR.0>
0

>  <SCORE.INTRA.REPUL>
0

>  <SCORE.INTRA.REPUL.0>
0

>  <SCORE.INTRA.SOLV>
0

>  <SCORE.INTRA.SOLV.lig_0>
-48.1583

>  <SCORE.INTRA.VDW>
0

>  <SCORE.INTRA.VDW.0>
0

>  <SCORE.INTRA.norm>
0

>  <SCORE.RESTR>
0

>  <SCORE.RESTR.CAVITY>
0

>  <SCORE.RESTR.norm>
0

>  <SCORE.SYSTEM>
0

>  <SCORE.SYSTEM.CONST>
0

>  <SCORE.SYSTEM.DIHEDRAL>
0

>  <SCORE.SYSTEM.SOLV>
0

>  <SCORE.SYSTEM.norm>
0

>  <SCORE.heavy>
12

>  <SCORE.norm>
-1.17545

>  <RMSD>
0.600

$$$$
ligand
 OpenBabel11021811503D
libRbt.so/2013.1/901 2013/11/27
 12 13  0  0  0  0  0  0  0  0999 V2000
    6.6228   17.6207    1.8374 C   0  0  0  0  0  0  0  0  0  0  0  0
    5.3611   16.3901    3.3633 C   0  0  0  0  0  0  0  0  0  0  0  0
    7.0785   17.7751    0.5975 N   0  0  0  0  0  0  0  0  0  0  0  0
    4.6035   15.3402    3.6994 N   0  0  0  0  0  0  0  0  0  0  0  0
    5.8508   16.5504    2.1268 N   0  0  0  0  0  0  0  0  0  0  0  0
    6.9149   18.5466    2.7776 N   0  0  0  0  0  0  0  0  0  0  0  0
    5.4798   18.1109    6.6332 N   0  0  0  0  0  0  0  0  0  0  0  0
    6.2802   19.2127    6.2941 C   0  0  0  0  0  0  0  0  0  0  0  0
    6.7744   19.3487    4.9758 N   0  0  0  0  0  0  0  0  0  0  0  0
    6.4519   18.4232    4.0466 C   0  0  0  0  0  0  0  0  0  0  0  0
    5.6460   17.3256    4.3656 C   0  0  0  0  0  0  0  0  0  0  0  0
    5.1494   17.1512    5.6560 C   0  0  0  0  0  0  0  0  0  0  0  0
  1  3  1  0  0  0  0
  1  5  1  0  0  0  0
  1  6  2  0  0  0  0
  2  5  2  0  0  0  0
  2 11  1  0  0  0  0
  2  4  1  0  0  0  0
  6 10  1  0  0  0  0
  7  8  2  0  0  0  0
  7 12  1  0  0  0  0
  8  9  1  0  0  0  0
  9 10  2  0  0  0  0
 10 11  1  0  0  0  0
 11 12  2  0  0  0  0
M  END
>  <CHROM.1>
6.02539324,17.64673859,3.83406186,-1.34266308,0.95642514,1.12790444

>  <Name>
ligand

>  <RI>
0

>  <Rbt.Current_Directory>
/home/itssahil/PROJECTS/Mol_Feturizer/New_Systems/rnas/4LX5

>  <Rbt.Executable>
rbdock ($Id: //depot/dev/client3/rdock/2013.1/src/exe/rbdock.cxx#4 $)

>  <Rbt.Library>
libRbt.so (2013.1, Build901 2013/11/27)

>  <Rbt.Parameter_File>
/export/apps/rDock/src/rDock_2013.1_src/data/scripts/dock_solv.prm

>  <Rbt.Receptor>
prm/blind_docking_80.prm

>  <SCORE>
-14.0709

>  <SCORE.INTER>
-14.0709

>  <SCORE.INTER.CONST>
1

>  <SCORE.INTER.POLAR>
0

>  <SCORE.INTER.ROT>
0

>  <SCORE.INTER.SOLV>
19.0994

>  <SCORE.INTER.VDW>
-19.3471

>  <SCORE.INTER.norm>
-1.17258

>  <SCORE.INTRA>
0

>  <SCORE.INTRA.DIHEDRAL>
0

>  <SCORE.INTRA.DIHEDRAL.0>
0

>  <SCORE.INTRA.POLAR>
0

>  <SCORE.INTRA.POLAR.0>
0

>  <SCORE.INTRA.REPUL>
0

>  <SCORE.INTRA.REPUL.0>
0

>  <SCORE.INTRA.SOLV>
0

>  <SCORE.INTRA.SOLV.lig_0>
-48.1583

>  <SCORE.INTRA.VDW>
0

>  <SCORE.INTRA.VDW.0>
0

>  <SCORE.INTRA.norm>
0

>  <SCORE.RESTR>
0

>  <SCORE.RESTR.CAVITY>
0

>  <SCORE.RESTR.norm>
0

>  <SCORE.SYSTEM>
0

>  <SCORE.SYSTEM.CONST>
0

>  <SCORE.SYSTEM.DIHEDRAL>
0

>  <SCORE.SYSTEM.SOLV>
0

>  <SCORE.SYSTEM.norm>
0

>  <SCORE.heavy>
12

>  <SCORE.norm>
-1.17258

>  <RMSD>
0.600

$$$$
ligand
 OpenBabel11021811503D
libRbt.so/2013.1/901 2013/11/27
 12 13  0  0  0  0  0  0  0  0999 V2000
    6.5943   17.5361    1.7714 C   0  0  0  0  0  0  0  0  0  0  0  0
    5.3183   16.4140    3.3676 C   0  0  0  0  0  0  0  0  0  0  0  0
    7.0164   17.6355    0.5142 N   0  0  0  0  0  0  0  0  0  0  0  0
    4.5160   15.4161    3.7542 N   0  0  0  0  0  0  0  0  0  0  0  0
    5.7749   16.5175    2.1124 N   0  0  0  0  0  0  0  0  0  0  0  0
    6.9676   18.4665    2.6779 N   0  0  0  0  0  0  0  0  0  0  0  0
    5.6392   18.2029    6.5870 N   0  0  0  0  0  0  0  0  0  0  0  0
    6.4870   19.2502    6.1947 C   0  0  0  0  0  0  0  0  0  0  0  0
    6.9440   19.3271    4.8583 N   0  0  0  0  0  0  0  0  0  0  0  0
    6.5408   18.3992    3.9637 C   0  0  0  0  0  0  0  0  0  0  0  0
    5.6870   17.3559    4.3361 C   0  0  0  0  0  0  0  0  0  0  0  0
    5.2247   17.2400    5.6457 C   0  0  0  0  0  0  0  0  0  0  0  0
  1  3  1  0  0  0  0
  1  5  1  0  0  0  0
  1  6  2  0  0  0  0
  2  5  2  0  0  0  0
  2 11  1  0  0  0  0
  2  4  1  0  0  0  0
  6 10  1  0  0  0  0
  7  8  2  0  0  0  0
  7 12  1  0  0  0  0
  8  9  1  0  0  0  0
  9 10  2  0  0  0  0
 10 11  1  0  0  0  0
 11 12  2  0  0  0  0
M  END
>  <CHROM.1>
6.06560107,17.64270608,3.78475118,-1.43076004,0.91927153,1.17427518

>  <Name>
ligand

>  <RI>
0

>  <Rbt.Current_Directory>
/home/itssahil/PROJECTS/Mol_Feturizer/New_Systems/rnas/4LX5

>  <Rbt.Executable>
rbdock ($Id: //depot/dev/client3/rdock/2013.1/src/exe/rbdock.cxx#4 $)

>  <Rbt.Library>
libRbt.so (2013.1, Build901 2013/11/27)

>  <Rbt.Parameter_File>
/export/apps/rDock/src/rDock_2013.1_src/data/scripts/dock_solv.prm

>  <Rbt.Receptor>
prm/pocket_docking_7.prm

>  <SCORE>
-13.9895

>  <SCORE.INTER>
-13.9895

>  <SCORE.INTER.CONST>
1

>  <SCORE.INTER.POLAR>
0

>  <SCORE.INTER.ROT>
0

>  <SCORE.INTER.SOLV>
18.4987

>  <SCORE.INTER.VDW>
-19.0926

>  <SCORE.INTER.norm>
-1.16579

>  <SCORE.INTRA>
0

>  <SCORE.INTRA.DIHEDRAL>
0

>  <SCORE.INTRA.DIHEDRAL.0>
0

>  <SCORE.INTRA.POLAR>
0

>  <SCORE.INTRA.POLAR.0>
0

>  <SCORE.INTRA.REPUL>
0

>  <SCORE.INTRA.REPUL.0>
0

>  <SCORE.INTRA.SOLV>
0

>  <SCORE.INTRA.SOLV.lig_0>
-48.1583

>  <SCORE.INTRA.VDW>
0

>  <SCORE.INTRA.VDW.0>
0

>  <SCORE.INTRA.norm>
0

>  <SCORE.RESTR>
0

>  <SCORE.RESTR.CAVITY>
0

>  <SCORE.RESTR.norm>
0

>  <SCORE.SYSTEM>
0

>  <SCORE.SYSTEM.CONST>
0

>  <SCORE.SYSTEM.DIHEDRAL>
0

>  <SCORE.SYSTEM.SOLV>
0

>  <SCORE.SYSTEM.norm>
0

>  <SCORE.heavy>
12

>  <SCORE.norm>
-1.16579

>  <RMSD>
0.603

$$$$
ligand
 OpenBabel11021811503D
libRbt.so/2013.1/901 2013/11/27
 12 13  0  0  0  0  0  0  0  0999 V2000
    6.6604   17.6612    1.8672 C   0  0  0  0  0  0  0  0  0  0  0  0
    5.3801   16.4213    3.3700 C   0  0  0  0  0  0  0  0  0  0  0  0
    7.1274   17.8258    0.6328 N   0  0  0  0  0  0  0  0  0  0  0  0
    4.6151   15.3716    3.6892 N   0  0  0  0  0  0  0  0  0  0  0  0
    5.8812   16.5916    2.1393 N   0  0  0  0  0  0  0  0  0  0  0  0
    6.9484   18.5765    2.8189 N   0  0  0  0  0  0  0  0  0  0  0  0
    5.4782   18.1095    6.6576 N   0  0  0  0  0  0  0  0  0  0  0  0
    6.2863   19.2110    6.3363 C   0  0  0  0  0  0  0  0  0  0  0  0
    6.7925   19.3576    5.0237 N   0  0  0  0  0  0  0  0  0  0  0  0
    6.4740   18.4428    4.0826 C   0  0  0  0  0  0  0  0  0  0  0  0
    5.6605   17.3457    4.3838 C   0  0  0  0  0  0  0  0  0  0  0  0
    5.1521   17.1608    5.6682 C   0  0  0  0  0  0  0  0  0  0  0  0
  1  3  1  0  0  0  0
  1  5  1  0  0  0  0
  1  6  2  0  0  0  0
  2  5  2  0  0  0  0
  2 11  1  0  0  0  0
  2  4  1  0  0  0  0
  6 10  1  0  0  0  0
  7  8  2  0  0  0  0
  7 12  1  0  0  0  0
  8  9  1  0  0  0  0
  9 10  2  0  0  0  0
 10 11  1  0  0  0  0
 11 12  2  0  0  0  0
M  END
>  <CHROM.1>
6.04588185,17.67033612,3.85878753,-1.33251366,0.94875139,1.12947095

>  <Name>
ligand

>  <RI>
0

>  <Rbt.Current_Directory>
/home/itssahil/PROJECTS/Mol_Feturizer/New_Systems/rnas/4LX5

>  <Rbt.Executable>
rbdock ($Id: //depot/dev/client3/rdock/2013.1/src/exe/rbdock.cxx#4 $)

>  <Rbt.Library>
libRbt.so (2013.1, Build901 2013/11/27)

>  <Rbt.Parameter_File>
/export/apps/rDock/src/rDock_2013.1_src/data/scripts/dock_solv.prm

>  <Rbt.Receptor>
prm/blind_docking_80.prm

>  <SCORE>
-14.1106

>  <SCORE.INTER>
-14.1106

>  <SCORE.INTER.CONST>
1

>  <SCORE.INTER.POLAR>
0

>  <SCORE.INTER.ROT>
0

>  <SCORE.INTER.SOLV>
19.1725

>  <SCORE.INTER.VDW>
-19.3979

>  <SCORE.INTER.norm>
-1.17588

>  <SCORE.INTRA>
0

>  <SCORE.INTRA.DIHEDRAL>
0

>  <SCORE.INTRA.DIHEDRAL.0>
0

>  <SCORE.INTRA.POLAR>
0

>  <SCORE.INTRA.POLAR.0>
0

>  <SCORE.INTRA.REPUL>
0

>  <SCORE.INTRA.REPUL.0>
0

>  <SCORE.INTRA.SOLV>
0

>  <SCORE.INTRA.SOLV.lig_0>
-48.1583

>  <SCORE.INTRA.VDW>
0

>  <SCORE.INTRA.VDW.0>
0

>  <SCORE.INTRA.norm>
0

>  <SCORE.RESTR>
0

>  <SCORE.RESTR.CAVITY>
0

>  <SCORE.RESTR.norm>
0

>  <SCORE.SYSTEM>
0

>  <SCORE.SYSTEM.CONST>
0

>  <SCORE.SYSTEM.DIHEDRAL>
0

>  <SCORE.SYSTEM.SOLV>
0

>  <SCORE.SYSTEM.norm>
0

>  <SCORE.heavy>
12

>  <SCORE.norm>
-1.17588

>  <RMSD>
0.620

$$$$
ligand
 OpenBabel11021811503D
libRbt.so/2013.1/901 2013/11/27
 12 13  0  0  0  0  0  0  0  0999 V2000
    6.6921   17.7836    1.0631 C   0  0  0  0  0  0  0  0  0  0  0  0
    6.7766   18.2602    3.3436 C   0  0  0  0  0  0  0  0  0  0  0  0
    7.0734   18.0755   -0.1771 N   0  0  0  0  0  0  0  0  0  0  0  0
    7.1739   18.9999    4.3848 N   0  0  0  0  0  0  0  0  0  0  0  0
    7.1287   18.5526    2.0845 N   0  0  0  0  0  0  0  0  0  0  0  0
    5.8997   16.7112    1.2845 N   0  0  0  0  0  0  0  0  0  0  0  0
    4.7289   15.7580    5.1362 N   0  0  0  0  0  0  0  0  0  0  0  0
    4.2996   14.9790    4.0506 C   0  0  0  0  0  0  0  0  0  0  0  0
    4.6970   15.3179    2.7361 N   0  0  0  0  0  0  0  0  0  0  0  0
    5.5070   16.3806    2.5400 C   0  0  0  0  0  0  0  0  0  0  0  0
    5.9529   17.1602    3.6122 C   0  0  0  0  0  0  0  0  0  0  0  0
    5.5738   16.8647    4.9204 C   0  0  0  0  0  0  0  0  0  0  0  0
  1  3  1  0  0  0  0
  1  5  1  0  0  0  0
  1  6  2  0  0  0  0
  2  5  2  0  0  0  0
  2 11  1  0  0  0  0
  2  4  1  0  0  0  0
  6 10  1  0  0  0  0
  7  8  2  0  0  0  0
  7 12  1  0  0  0  0
  8  9  1  0  0  0  0
  9 10  2  0  0  0  0
 10 11  1  0  0  0  0
 11 12  2  0  0  0  0
M  END
>  <CHROM.1>
5.97076407,17.08298806,2.88881668,0.65548147,-0.93572192,-1.73708413

>  <Name>
ligand

>  <RI>
0

>  <Rbt.Current_Directory>
/home/itssahil/PROJECTS/Mol_Feturizer/New_Systems/rnas/4LX5

>  <Rbt.Executable>
rbdock ($Id: //depot/dev/client3/rdock/2013.1/src/exe/rbdock.cxx#4 $)

>  <Rbt.Library>
libRbt.so (2013.1, Build901 2013/11/27)

>  <Rbt.Parameter_File>
/export/apps/rDock/src/rDock_2013.1_src/data/scripts/dock_solv.prm

>  <Rbt.Receptor>
prm/blind_docking_40.prm

>  <SCORE>
-9.37892

>  <SCORE.INTER>
-9.37892

>  <SCORE.INTER.CONST>
1

>  <SCORE.INTER.POLAR>
0

>  <SCORE.INTER.ROT>
0

>  <SCORE.INTER.SOLV>
21.9036

>  <SCORE.INTER.VDW>
-17.1538

>  <SCORE.INTER.norm>
-0.781577

>  <SCORE.INTRA>
0

>  <SCORE.INTRA.DIHEDRAL>
0

>  <SCORE.INTRA.DIHEDRAL.0>
0

>  <SCORE.INTRA.POLAR>
0

>  <SCORE.INTRA.POLAR.0>
0

>  <SCORE.INTRA.REPUL>
0

>  <SCORE.INTRA.REPUL.0>
0

>  <SCORE.INTRA.SOLV>
0

>  <SCORE.INTRA.SOLV.lig_0>
-48.1583

>  <SCORE.INTRA.VDW>
0

>  <SCORE.INTRA.VDW.0>
0

>  <SCORE.INTRA.norm>
0

>  <SCORE.RESTR>
0

>  <SCORE.RESTR.CAVITY>
0

>  <SCORE.RESTR.norm>
0

>  <SCORE.SYSTEM>
0

>  <SCORE.SYSTEM.CONST>
0

>  <SCORE.SYSTEM.DIHEDRAL>
0

>  <SCORE.SYSTEM.SOLV>
0

>  <SCORE.SYSTEM.norm>
0

>  <SCORE.heavy>
12

>  <SCORE.norm>
-0.781577

>  <RMSD>
2.823

$$$$
ligand
 OpenBabel11021811503D
libRbt.so/2013.1/901 2013/11/27
 12 13  0  0  0  0  0  0  0  0999 V2000
    6.6815   17.7790    1.1679 C   0  0  0  0  0  0  0  0  0  0  0  0
    6.7045   18.1916    3.4623 C   0  0  0  0  0  0  0  0  0  0  0  0
    7.0882   18.1113   -0.0540 N   0  0  0  0  0  0  0  0  0  0  0  0
    7.0660   18.9067    4.5333 N   0  0  0  0  0  0  0  0  0  0  0  0
    7.0824   18.5245    2.2209 N   0  0  0  0  0  0  0  0  0  0  0  0
    5.8997   16.6900    1.3397 N   0  0  0  0  0  0  0  0  0  0  0  0
    4.6507   15.6115    5.1333 N   0  0  0  0  0  0  0  0  0  0  0  0
    4.2588   14.8579    4.0161 C   0  0  0  0  0  0  0  0  0  0  0  0
    4.6827   15.2395    2.7218 N   0  0  0  0  0  0  0  0  0  0  0  0
    5.4818   16.3184    2.5754 C   0  0  0  0  0  0  0  0  0  0  0  0
    5.8905   17.0731    3.6797 C   0  0  0  0  0  0  0  0  0  0  0  0
    5.4845   16.7354    4.9694 C   0  0  0  0  0  0  0  0  0  0  0  0
  1  3  1  0  0  0  0
  1  5  1  0  0  0  0
  1  6  2  0  0  0  0
  2  5  2  0  0  0  0
  2 11  1  0  0  0  0
  2  4  1  0  0  0  0
  6 10  1  0  0  0  0
  7  8  2  0  0  0  0
  7 12  1  0  0  0  0
  8  9  1  0  0  0  0
  9 10  2  0  0  0  0
 10 11  1  0  0  0  0
 11 12  2  0  0  0  0
M  END
>  <CHROM.1>
5.92685124,17.01683000,2.95506397,0.61102938,-0.94550521,-1.74467830

>  <Name>
ligand

>  <RI>
0

>  <Rbt.Current_Directory>
/home/itssahil/PROJECTS/Mol_Feturizer/New_Systems/rnas/4LX5

>  <Rbt.Executable>
rbdock ($Id: //depot/dev/client3/rdock/2013.1/src/exe/rbdock.cxx#4 $)

>  <Rbt.Library>
libRbt.so (2013.1, Build901 2013/11/27)

>  <Rbt.Parameter_File>
/export/apps/rDock/src/rDock_2013.1_src/data/scripts/dock_solv.prm

>  <Rbt.Receptor>
prm/pocket_docking_8.prm

>  <SCORE>
-9.41578

>  <SCORE.INTER>
-9.41578

>  <SCORE.INTER.CONST>
1

>  <SCORE.INTER.POLAR>
0

>  <SCORE.INTER.ROT>
0

>  <SCORE.INTER.SOLV>
21.4916

>  <SCORE.INTER.VDW>
-17.0411

>  <SCORE.INTER.norm>
-0.784648

>  <SCORE.INTRA>
0

>  <SCORE.INTRA.DIHEDRAL>
0

>  <SCORE.INTRA.DIHEDRAL.0>
0

>  <SCORE.INTRA.POLAR>
0

>  <SCORE.INTRA.POLAR.0>
0

>  <SCORE.INTRA.REPUL>
0

>  <SCORE.INTRA.REPUL.0>
0

>  <SCORE.INTRA.SOLV>
0

>  <SCORE.INTRA.SOLV.lig_0>
-48.1583

>  <SCORE.INTRA.VDW>
0

>  <SCORE.INTRA.VDW.0>
0

>  <SCORE.INTRA.norm>
0

>  <SCORE.RESTR>
0

>  <SCORE.RESTR.CAVITY>
0

>  <SCORE.RESTR.norm>
0

>  <SCORE.SYSTEM>
0

>  <SCORE.SYSTEM.CONST>
0

>  <SCORE.SYSTEM.DIHEDRAL>
0

>  <SCORE.SYSTEM.SOLV>
0

>  <SCORE.SYSTEM.norm>
0

>  <SCORE.heavy>
12

>  <SCORE.norm>
-0.784648

>  <RMSD>
2.842

$$$$
ligand
 OpenBabel11021811503D
libRbt.so/2013.1/901 2013/11/27
 12 13  0  0  0  0  0  0  0  0999 V2000
    6.7799   17.6951    1.0858 C   0  0  0  0  0  0  0  0  0  0  0  0
    6.7712   18.0961    3.3823 C   0  0  0  0  0  0  0  0  0  0  0  0
    7.2143   18.0251   -0.1272 N   0  0  0  0  0  0  0  0  0  0  0  0
    7.1282   18.7986    4.4631 N   0  0  0  0  0  0  0  0  0  0  0  0
    7.1772   18.4273    2.1494 N   0  0  0  0  0  0  0  0  0  0  0  0
    5.9736   16.6212    1.2383 N   0  0  0  0  0  0  0  0  0  0  0  0
    4.6376   15.5495    5.0041 N   0  0  0  0  0  0  0  0  0  0  0  0
    4.2503   14.8094    3.8764 C   0  0  0  0  0  0  0  0  0  0  0  0
    4.7042   15.1887    2.5916 N   0  0  0  0  0  0  0  0  0  0  0  0
    5.5270   16.2520    2.4647 C   0  0  0  0  0  0  0  0  0  0  0  0
    5.9314   16.9931    3.5798 C   0  0  0  0  0  0  0  0  0  0  0  0
    5.4963   16.6573    4.8605 C   0  0  0  0  0  0  0  0  0  0  0  0
  1  3  1  0  0  0  0
  1  5  1  0  0  0  0
  1  6  2  0  0  0  0
  2  5  2  0  0  0  0
  2 11  1  0  0  0  0
  2  4  1  0  0  0  0
  6 10  1  0  0  0  0
  7  8  2  0  0  0  0
  7 12  1  0  0  0  0
  8  9  1  0  0  0  0
  9 10  2  0  0  0  0
 10 11  1  0  0  0  0
 11 12  2  0  0  0  0
M  END
>  <CHROM.1>
5.97923677,16.93960409,2.85561684,0.58834472,-0.92273206,-1.75789886

>  <Name>
ligand

>  <RI>
0

>  <Rbt.Current_Directory>
/home/itssahil/PROJECTS/Mol_Feturizer/New_Systems/rnas/4LX5

>  <Rbt.Executable>
rbdock ($Id: //depot/dev/client3/rdock/2013.1/src/exe/rbdock.cxx#4 $)

>  <Rbt.Library>
libRbt.so (2013.1, Build901 2013/11/27)

>  <Rbt.Parameter_File>
/export/apps/rDock/src/rDock_2013.1_src/data/scripts/dock_solv.prm

>  <Rbt.Receptor>
prm/blind_docking_60.prm

>  <SCORE>
-9.60889

>  <SCORE.INTER>
-9.60889

>  <SCORE.INTER.CONST>
1

>  <SCORE.INTER.POLAR>
0

>  <SCORE.INTER.ROT>
0

>  <SCORE.INTER.SOLV>
21.0356

>  <SCORE.INTER.VDW>
-17.0178

>  <SCORE.INTER.norm>
-0.800741

>  <SCORE.INTRA>
0

>  <SCORE.INTRA.DIHEDRAL>
0

>  <SCORE.INTRA.DIHEDRAL.0>
0

>  <SCORE.INTRA.POLAR>
0

>  <SCORE.INTRA.POLAR.0>
0

>  <SCORE.INTRA.REPUL>
0

>  <SCORE.INTRA.REPUL.0>
0

>  <SCORE.INTRA.SOLV>
0

>  <SCORE.INTRA.SOLV.lig_0>
-48.1583

>  <SCORE.INTRA.VDW>
0

>  <SCORE.INTRA.VDW.0>
0

>  <SCORE.INTRA.norm>
0

>  <SCORE.RESTR>
0

>  <SCORE.RESTR.CAVITY>
0

>  <SCORE.RESTR.norm>
0

>  <SCORE.SYSTEM>
0

>  <SCORE.SYSTEM.CONST>
0

>  <SCORE.SYSTEM.DIHEDRAL>
0

>  <SCORE.SYSTEM.SOLV>
0

>  <SCORE.SYSTEM.norm>
0

>  <SCORE.heavy>
12

>  <SCORE.norm>
-0.800741

>  <RMSD>
2.868

$$$$
ligand
 OpenBabel11021811503D
libRbt.so/2013.1/901 2013/11/27
 12 13  0  0  0  0  0  0  0  0999 V2000
    6.7581   17.7025    1.1092 C   0  0  0  0  0  0  0  0  0  0  0  0
    6.7187   18.0659    3.4116 C   0  0  0  0  0  0  0  0  0  0  0  0
    7.2089   18.0521   -0.0923 N   0  0  0  0  0  0  0  0  0  0  0  0
    7.0613   18.7506    4.5084 N   0  0  0  0  0  0  0  0  0  0  0  0
    7.1413   18.4171    2.1898 N   0  0  0  0  0  0  0  0  0  0  0  0
    5.9497   16.6266    1.2333 N   0  0  0  0  0  0  0  0  0  0  0  0
    4.5630   15.4941    4.9628 N   0  0  0  0  0  0  0  0  0  0  0  0
    4.1906   14.7727    3.8181 C   0  0  0  0  0  0  0  0  0  0  0  0
    4.6618   15.1727    2.5458 N   0  0  0  0  0  0  0  0  0  0  0  0
    5.4865   16.2376    2.4474 C   0  0  0  0  0  0  0  0  0  0  0  0
    5.8761   16.9602    3.5797 C   0  0  0  0  0  0  0  0  0  0  0  0
    5.4238   16.6037    4.8489 C   0  0  0  0  0  0  0  0  0  0  0  0
  1  3  1  0  0  0  0
  1  5  1  0  0  0  0
  1  6  2  0  0  0  0
  2  5  2  0  0  0  0
  2 11  1  0  0  0  0
  2  4  1  0  0  0  0
  6 10  1  0  0  0  0
  7  8  2  0  0  0  0
  7 12  1  0  0  0  0
  8  9  1  0  0  0  0
  9 10  2  0  0  0  0
 10 11  1  0  0  0  0
 11 12  2  0  0  0  0
M  END
>  <CHROM.1>
5.93360518,16.91852344,2.85550454,0.56663974,-0.91991236,-1.75884867

>  <Name>
ligand

>  <RI>
0

>  <Rbt.Current_Directory>
/home/itssahil/PROJECTS/Mol_Feturizer/New_Systems/rnas/4LX5

>  <Rbt.Executable>
rbdock ($Id: //depot/dev/client3/rdock/2013.1/src/exe/rbdock.cxx#4 $)

>  <Rbt.Library>
libRbt.so (2013.1, Build901 2013/11/27)

>  <Rbt.Parameter_File>
/export/apps/rDock/src/rDock_2013.1_src/data/scripts/dock_solv.prm

>  <Rbt.Receptor>
prm/blind_docking_60.prm

>  <SCORE>
-9.65815

>  <SCORE.INTER>
-9.65815

>  <SCORE.INTER.CONST>
1

>  <SCORE.INTER.POLAR>
0

>  <SCORE.INTER.ROT>
0

>  <SCORE.INTER.SOLV>
20.875

>  <SCORE.INTER.VDW>
-16.9971

>  <SCORE.INTER.norm>
-0.804846

>  <SCORE.INTRA>
0

>  <SCORE.INTRA.DIHEDRAL>
0

>  <SCORE.INTRA.DIHEDRAL.0>
0

>  <SCORE.INTRA.POLAR>
0

>  <SCORE.INTRA.POLAR.0>
0

>  <SCORE.INTRA.REPUL>
0

>  <SCORE.INTRA.REPUL.0>
0

>  <SCORE.INTRA.SOLV>
0

>  <SCORE.INTRA.SOLV.lig_0>
-48.1583

>  <SCORE.INTRA.VDW>
0

>  <SCORE.INTRA.VDW.0>
0

>  <SCORE.INTRA.norm>
0

>  <SCORE.RESTR>
0

>  <SCORE.RESTR.CAVITY>
0

>  <SCORE.RESTR.norm>
0

>  <SCORE.SYSTEM>
0

>  <SCORE.SYSTEM.CONST>
0

>  <SCORE.SYSTEM.DIHEDRAL>
0

>  <SCORE.SYSTEM.SOLV>
0

>  <SCORE.SYSTEM.norm>
0

>  <SCORE.heavy>
12

>  <SCORE.norm>
-0.804846

>  <RMSD>
2.883

$$$$
ligand
 OpenBabel11021811503D
libRbt.so/2013.1/901 2013/11/27
 12 13  0  0  0  0  0  0  0  0999 V2000
    4.7370   15.3257    3.8108 C   0  0  0  0  0  0  0  0  0  0  0  0
    6.0865   16.9708    2.8581 C   0  0  0  0  0  0  0  0  0  0  0  0
    4.0822   14.1750    3.6851 N   0  0  0  0  0  0  0  0  0  0  0  0
    6.7468   17.5106    1.8277 N   0  0  0  0  0  0  0  0  0  0  0  0
    5.3999   15.8260    2.7452 N   0  0  0  0  0  0  0  0  0  0  0  0
    4.7520   15.9600    5.0042 N   0  0  0  0  0  0  0  0  0  0  0  0
    6.8119   19.5219    5.4336 N   0  0  0  0  0  0  0  0  0  0  0  0
    6.1163   18.9689    6.5199 C   0  0  0  0  0  0  0  0  0  0  0  0
    5.4068   17.7556    6.3615 N   0  0  0  0  0  0  0  0  0  0  0  0
    5.4235   17.1273    5.1661 C   0  0  0  0  0  0  0  0  0  0  0  0
    6.1213   17.6593    4.0770 C   0  0  0  0  0  0  0  0  0  0  0  0
    6.8227   18.8582    4.1908 C   0  0  0  0  0  0  0  0  0  0  0  0
  1  3  1  0  0  0  0
  1  5  1  0  0  0  0
  1  6  2  0  0  0  0
  2  5  2  0  0  0  0
  2 11  1  0  0  0  0
  2  4  1  0  0  0  0
  6 10  1  0  0  0  0
  7  8  2  0  0  0  0
  7 12  1  0  0  0  0
  8  9  1  0  0  0  0
  9 10  2  0  0  0  0
 10 11  1  0  0  0  0
 11 12  2  0  0  0  0
M  END
>  <CHROM.1>
5.69542831,17.11167892,4.29665231,2.20343873,-0.95878283,-2.05807016

>  <Name>
ligand

>  <RI>
0

>  <Rbt.Current_Directory>
/home/itssahil/PROJECTS/Mol_Feturizer/New_Systems/rnas/4LX5

>  <Rbt.Executable>
rbdock ($Id: //depot/dev/client3/rdock/2013.1/src/exe/rbdock.cxx#4 $)

>  <Rbt.Library>
libRbt.so (2013.1, Build901 2013/11/27)

>  <Rbt.Parameter_File>
/export/apps/rDock/src/rDock_2013.1_src/data/scripts/dock_solv.prm

>  <Rbt.Receptor>
prm/blind_docking_100.prm

>  <SCORE>
-15.0189

>  <SCORE.INTER>
-15.0189

>  <SCORE.INTER.CONST>
1

>  <SCORE.INTER.POLAR>
0

>  <SCORE.INTER.ROT>
0

>  <SCORE.INTER.SOLV>
16.1154

>  <SCORE.INTER.VDW>
-18.9844

>  <SCORE.INTER.norm>
-1.25157

>  <SCORE.INTRA>
0

>  <SCORE.INTRA.DIHEDRAL>
0

>  <SCORE.INTRA.DIHEDRAL.0>
0

>  <SCORE.INTRA.POLAR>
0

>  <SCORE.INTRA.POLAR.0>
0

>  <SCORE.INTRA.REPUL>
0

>  <SCORE.INTRA.REPUL.0>
0

>  <SCORE.INTRA.SOLV>
0

>  <SCORE.INTRA.SOLV.lig_0>
-48.1583

>  <SCORE.INTRA.VDW>
0

>  <SCORE.INTRA.VDW.0>
0

>  <SCORE.INTRA.norm>
0

>  <SCORE.RESTR>
0

>  <SCORE.RESTR.CAVITY>
0

>  <SCORE.RESTR.norm>
0

>  <SCORE.SYSTEM>
0

>  <SCORE.SYSTEM.CONST>
0

>  <SCORE.SYSTEM.DIHEDRAL>
0

>  <SCORE.SYSTEM.SOLV>
0

>  <SCORE.SYSTEM.norm>
0

>  <SCORE.heavy>
12

>  <SCORE.norm>
-1.25157

>  <RMSD>
3.008

$$$$
ligand
 OpenBabel11021811503D
libRbt.so/2013.1/901 2013/11/27
 12 13  0  0  0  0  0  0  0  0999 V2000
    4.7401   15.3096    3.8144 C   0  0  0  0  0  0  0  0  0  0  0  0
    6.0972   16.9448    2.8557 C   0  0  0  0  0  0  0  0  0  0  0  0
    4.0812   14.1606    3.6935 N   0  0  0  0  0  0  0  0  0  0  0  0
    6.7611   17.4769    1.8236 N   0  0  0  0  0  0  0  0  0  0  0  0
    5.4065   15.8021    2.7474 N   0  0  0  0  0  0  0  0  0  0  0  0
    4.7555   15.9498    5.0046 N   0  0  0  0  0  0  0  0  0  0  0  0
    6.8279   19.5062    5.4194 N   0  0  0  0  0  0  0  0  0  0  0  0
    6.1285   18.9614    6.5073 C   0  0  0  0  0  0  0  0  0  0  0  0
    5.4148   17.7499    6.3539 N   0  0  0  0  0  0  0  0  0  0  0  0
    5.4311   17.1155    5.1617 C   0  0  0  0  0  0  0  0  0  0  0  0
    6.1326   17.6394    4.0711 C   0  0  0  0  0  0  0  0  0  0  0  0
    6.8383   18.8363    4.1800 C   0  0  0  0  0  0  0  0  0  0  0  0
  1  3  1  0  0  0  0
  1  5  1  0  0  0  0
  1  6  2  0  0  0  0
  2  5  2  0  0  0  0
  2 11  1  0  0  0  0
  2  4  1  0  0  0  0
  6 10  1  0  0  0  0
  7  8  2  0  0  0  0
  7 12  1  0  0  0  0
  8  9  1  0  0  0  0
  9 10  2  0  0  0  0
 10 11  1  0  0  0  0
 11 12  2  0  0  0  0
M  END
>  <CHROM.1>
5.70432318,17.09444243,4.29282647,2.20400659,-0.95475635,-2.06266619

>  <Name>
ligand

>  <RI>
0

>  <Rbt.Current_Directory>
/home/itssahil/PROJECTS/Mol_Feturizer/New_Systems/rnas/4LX5

>  <Rbt.Executable>
rbdock ($Id: //depot/dev/client3/rdock/2013.1/src/exe/rbdock.cxx#4 $)

>  <Rbt.Library>
libRbt.so (2013.1, Build901 2013/11/27)

>  <Rbt.Parameter_File>
/export/apps/rDock/src/rDock_2013.1_src/data/scripts/dock_solv.prm

>  <Rbt.Receptor>
prm/pocket_docking_5.prm

>  <SCORE>
-15.0233

>  <SCORE.INTER>
-15.0233

>  <SCORE.INTER.CONST>
1

>  <SCORE.INTER.POLAR>
0

>  <SCORE.INTER.ROT>
0

>  <SCORE.INTER.SOLV>
16.1989

>  <SCORE.INTER.VDW>
-19.0152

>  <SCORE.INTER.norm>
-1.25194

>  <SCORE.INTRA>
0

>  <SCORE.INTRA.DIHEDRAL>
0

>  <SCORE.INTRA.DIHEDRAL.0>
0

>  <SCORE.INTRA.POLAR>
0

>  <SCORE.INTRA.POLAR.0>
0

>  <SCORE.INTRA.REPUL>
0

>  <SCORE.INTRA.REPUL.0>
0

>  <SCORE.INTRA.SOLV>
0

>  <SCORE.INTRA.SOLV.lig_0>
-48.1583

>  <SCORE.INTRA.VDW>
0

>  <SCORE.INTRA.VDW.0>
0

>  <SCORE.INTRA.norm>
0

>  <SCORE.RESTR>
0

>  <SCORE.RESTR.CAVITY>
0

>  <SCORE.RESTR.norm>
0

>  <SCORE.SYSTEM>
0

>  <SCORE.SYSTEM.CONST>
0

>  <SCORE.SYSTEM.DIHEDRAL>
0

>  <SCORE.SYSTEM.SOLV>
0

>  <SCORE.SYSTEM.norm>
0

>  <SCORE.heavy>
12

>  <SCORE.norm>
-1.25194

>  <RMSD>
3.010

$$$$
ligand
 OpenBabel11021811503D
libRbt.so/2013.1/901 2013/11/27
 12 13  0  0  0  0  0  0  0  0999 V2000
    4.7738   15.4336    3.8538 C   0  0  0  0  0  0  0  0  0  0  0  0
    6.2080   17.0230    2.9307 C   0  0  0  0  0  0  0  0  0  0  0  0
    4.0805   14.3071    3.7154 N   0  0  0  0  0  0  0  0  0  0  0  0
    6.9150   17.5327    1.9161 N   0  0  0  0  0  0  0  0  0  0  0  0
    5.4828   15.9037    2.8042 N   0  0  0  0  0  0  0  0  0  0  0  0
    4.7804   16.0731    5.0444 N   0  0  0  0  0  0  0  0  0  0  0  0
    6.9584   19.5589    5.5140 N   0  0  0  0  0  0  0  0  0  0  0  0
    6.2141   19.0376    6.5835 C   0  0  0  0  0  0  0  0  0  0  0  0
    5.4648   17.8504    6.4112 N   0  0  0  0  0  0  0  0  0  0  0  0
    5.4901   17.2158    5.2194 C   0  0  0  0  0  0  0  0  0  0  0  0
    6.2358   17.7160    4.1472 C   0  0  0  0  0  0  0  0  0  0  0  0
    6.9778   18.8889    4.2747 C   0  0  0  0  0  0  0  0  0  0  0  0
  1  3  1  0  0  0  0
  1  5  1  0  0  0  0
  1  6  2  0  0  0  0
  2  5  2  0  0  0  0
  2 11  1  0  0  0  0
  2  4  1  0  0  0  0
  6 10  1  0  0  0  0
  7  8  2  0  0  0  0
  7 12  1  0  0  0  0
  8  9  1  0  0  0  0
  9 10  2  0  0  0  0
 10 11  1  0  0  0  0
 11 12  2  0  0  0  0
M  END
>  <CHROM.1>
5.78429091,17.18558663,4.35764282,2.19325211,-0.91361344,-2.07097022

>  <Name>
ligand

>  <RI>
0

>  <Rbt.Current_Directory>
/home/itssahil/PROJECTS/Mol_Feturizer/New_Systems/rnas/4LX5

>  <Rbt.Executable>
rbdock ($Id: //depot/dev/client3/rdock/2013.1/src/exe/rbdock.cxx#4 $)

>  <Rbt.Library>
libRbt.so (2013.1, Build901 2013/11/27)

>  <Rbt.Parameter_File>
/export/apps/rDock/src/rDock_2013.1_src/data/scripts/dock_solv.prm

>  <Rbt.Receptor>
prm/pocket_docking_6.prm

>  <SCORE>
-15.0195

>  <SCORE.INTER>
-15.0195

>  <SCORE.INTER.CONST>
1

>  <SCORE.INTER.POLAR>
0

>  <SCORE.INTER.ROT>
0

>  <SCORE.INTER.SOLV>
16.3237

>  <SCORE.INTER.VDW>
-19.0542

>  <SCORE.INTER.norm>
-1.25162

>  <SCORE.INTRA>
0

>  <SCORE.INTRA.DIHEDRAL>
0

>  <SCORE.INTRA.DIHEDRAL.0>
0

>  <SCORE.INTRA.POLAR>
0

>  <SCORE.INTRA.POLAR.0>
0

>  <SCORE.INTRA.REPUL>
0

>  <SCORE.INTRA.REPUL.0>
0

>  <SCORE.INTRA.SOLV>
0

>  <SCORE.INTRA.SOLV.lig_0>
-48.1583

>  <SCORE.INTRA.VDW>
0

>  <SCORE.INTRA.VDW.0>
0

>  <SCORE.INTRA.norm>
0

>  <SCORE.RESTR>
0

>  <SCORE.RESTR.CAVITY>
0

>  <SCORE.RESTR.norm>
0

>  <SCORE.SYSTEM>
0

>  <SCORE.SYSTEM.CONST>
0

>  <SCORE.SYSTEM.DIHEDRAL>
0

>  <SCORE.SYSTEM.SOLV>
0

>  <SCORE.SYSTEM.norm>
0

>  <SCORE.heavy>
12

>  <SCORE.norm>
-1.25162

>  <RMSD>
3.014

$$$$
ligand
 OpenBabel11021811503D
libRbt.so/2013.1/901 2013/11/27
 12 13  0  0  0  0  0  0  0  0999 V2000
    4.7470   15.4205    3.8506 C   0  0  0  0  0  0  0  0  0  0  0  0
    6.1377   17.0374    2.9091 C   0  0  0  0  0  0  0  0  0  0  0  0
    4.0660   14.2858    3.7181 N   0  0  0  0  0  0  0  0  0  0  0  0
    6.8140   17.5657    1.8832 N   0  0  0  0  0  0  0  0  0  0  0  0
    5.4251   15.9094    2.7893 N   0  0  0  0  0  0  0  0  0  0  0  0
    4.7725   16.0496    5.0466 N   0  0  0  0  0  0  0  0  0  0  0  0
    6.9132   19.5609    5.4972 N   0  0  0  0  0  0  0  0  0  0  0  0
    6.2011   19.0200    6.5789 C   0  0  0  0  0  0  0  0  0  0  0  0
    5.4642   17.8242    6.4132 N   0  0  0  0  0  0  0  0  0  0  0  0
    5.4705   17.2004    5.2154 C   0  0  0  0  0  0  0  0  0  0  0  0
    6.1843   17.7202    4.1308 C   0  0  0  0  0  0  0  0  0  0  0  0
    6.9130   18.9020    4.2518 C   0  0  0  0  0  0  0  0  0  0  0  0
  1  3  1  0  0  0  0
  1  5  1  0  0  0  0
  1  6  2  0  0  0  0
  2  5  2  0  0  0  0
  2 11  1  0  0  0  0
  2  4  1  0  0  0  0
  6 10  1  0  0  0  0
  7  8  2  0  0  0  0
  7 12  1  0  0  0  0
  8  9  1  0  0  0  0
  9 10  2  0  0  0  0
 10 11  1  0  0  0  0
 11 12  2  0  0  0  0
M  END
>  <CHROM.1>
5.74501268,17.18176973,4.34685873,2.21659174,-0.93652278,-2.04345154

>  <Name>
ligand

>  <RI>
0

>  <Rbt.Current_Directory>
/home/itssahil/PROJECTS/Mol_Feturizer/New_Systems/rnas/4LX5

>  <Rbt.Executable>
rbdock ($Id: //depot/dev/client3/rdock/2013.1/src/exe/rbdock.cxx#4 $)

>  <Rbt.Library>
libRbt.so (2013.1, Build901 2013/11/27)

>  <Rbt.Parameter_File>
/export/apps/rDock/src/rDock_2013.1_src/data/scripts/dock_solv.prm

>  <Rbt.Receptor>
prm/pocket_docking_7.prm

>  <SCORE>
-15.0112

>  <SCORE.INTER>
-15.0112

>  <SCORE.INTER.CONST>
1

>  <SCORE.INTER.POLAR>
0

>  <SCORE.INTER.ROT>
0

>  <SCORE.INTER.SOLV>
15.9849

>  <SCORE.INTER.VDW>
-18.9357

>  <SCORE.INTER.norm>
-1.25093

>  <SCORE.INTRA>
0

>  <SCORE.INTRA.DIHEDRAL>
0

>  <SCORE.INTRA.DIHEDRAL.0>
0

>  <SCORE.INTRA.POLAR>
0

>  <SCORE.INTRA.POLAR.0>
0

>  <SCORE.INTRA.REPUL>
0

>  <SCORE.INTRA.REPUL.0>
0

>  <SCORE.INTRA.SOLV>
0

>  <SCORE.INTRA.SOLV.lig_0>
-48.1583

>  <SCORE.INTRA.VDW>
0

>  <SCORE.INTRA.VDW.0>
0

>  <SCORE.INTRA.norm>
0

>  <SCORE.RESTR>
0

>  <SCORE.RESTR.CAVITY>
0

>  <SCORE.RESTR.norm>
0

>  <SCORE.SYSTEM>
0

>  <SCORE.SYSTEM.CONST>
0

>  <SCORE.SYSTEM.DIHEDRAL>
0

>  <SCORE.SYSTEM.SOLV>
0

>  <SCORE.SYSTEM.norm>
0

>  <SCORE.heavy>
12

>  <SCORE.norm>
-1.25093

>  <RMSD>
3.014

$$$$
ligand
 OpenBabel11021811503D
libRbt.so/2013.1/901 2013/11/27
 12 13  0  0  0  0  0  0  0  0999 V2000
    4.7117   15.3523    3.8342 C   0  0  0  0  0  0  0  0  0  0  0  0
    6.0800   16.9760    2.8718 C   0  0  0  0  0  0  0  0  0  0  0  0
    4.0429   14.2088    3.7151 N   0  0  0  0  0  0  0  0  0  0  0  0
    6.7458   17.5024    1.8381 N   0  0  0  0  0  0  0  0  0  0  0  0
    5.3795   15.8390    2.7655 N   0  0  0  0  0  0  0  0  0  0  0  0
    4.7354   15.9925    5.0243 N   0  0  0  0  0  0  0  0  0  0  0  0
    6.8384   19.5316    5.4334 N   0  0  0  0  0  0  0  0  0  0  0  0
    6.1372   18.9927    6.5231 C   0  0  0  0  0  0  0  0  0  0  0  0
    5.4130   17.7872    6.3716 N   0  0  0  0  0  0  0  0  0  0  0  0
    5.4211   17.1525    5.1795 C   0  0  0  0  0  0  0  0  0  0  0  0
    6.1242   17.6704    4.0871 C   0  0  0  0  0  0  0  0  0  0  0  0
    6.8401   18.8613    4.1940 C   0  0  0  0  0  0  0  0  0  0  0  0
  1  3  1  0  0  0  0
  1  5  1  0  0  0  0
  1  6  2  0  0  0  0
  2  5  2  0  0  0  0
  2 11  1  0  0  0  0
  2  4  1  0  0  0  0
  6 10  1  0  0  0  0
  7  8  2  0  0  0  0
  7 12  1  0  0  0  0
  8  9  1  0  0  0  0
  9 10  2  0  0  0  0
 10 11  1  0  0  0  0
 11 12  2  0  0  0  0
M  END
>  <CHROM.1>
5.69197719,17.12906719,4.30995425,2.21452836,-0.94855315,-2.05423767

>  <Name>
ligand

>  <RI>
0

>  <Rbt.Current_Directory>
/home/itssahil/PROJECTS/Mol_Feturizer/New_Systems/rnas/4LX5

>  <Rbt.Executable>
rbdock ($Id: //depot/dev/client3/rdock/2013.1/src/exe/rbdock.cxx#4 $)

>  <Rbt.Library>
libRbt.so (2013.1, Build901 2013/11/27)

>  <Rbt.Parameter_File>
/export/apps/rDock/src/rDock_2013.1_src/data/scripts/dock_solv.prm

>  <Rbt.Receptor>
prm/pocket_docking_3.prm

>  <SCORE>
-15.0088

>  <SCORE.INTER>
-15.0088

>  <SCORE.INTER.CONST>
1

>  <SCORE.INTER.POLAR>
0

>  <SCORE.INTER.ROT>
0

>  <SCORE.INTER.SOLV>
15.9161

>  <SCORE.INTER.VDW>
-18.9112

>  <SCORE.INTER.norm>
-1.25073

>  <SCORE.INTRA>
0

>  <SCORE.INTRA.DIHEDRAL>
0

>  <SCORE.INTRA.DIHEDRAL.0>
0

>  <SCORE.INTRA.POLAR>
0

>  <SCORE.INTRA.POLAR.0>
0

>  <SCORE.INTRA.REPUL>
0

>  <SCORE.INTRA.REPUL.0>
0

>  <SCORE.INTRA.SOLV>
0

>  <SCORE.INTRA.SOLV.lig_0>
-48.1583

>  <SCORE.INTRA.VDW>
0

>  <SCORE.INTRA.VDW.0>
0

>  <SCORE.INTRA.norm>
0

>  <SCORE.RESTR>
0

>  <SCORE.RESTR.CAVITY>
0

>  <SCORE.RESTR.norm>
0

>  <SCORE.SYSTEM>
0

>  <SCORE.SYSTEM.CONST>
0

>  <SCORE.SYSTEM.DIHEDRAL>
0

>  <SCORE.SYSTEM.SOLV>
0

>  <SCORE.SYSTEM.norm>
0

>  <SCORE.heavy>
12

>  <SCORE.norm>
-1.25073

>  <RMSD>
3.015

$$$$
ligand
 OpenBabel11021811503D
libRbt.so/2013.1/901 2013/11/27
 12 13  0  0  0  0  0  0  0  0999 V2000
    4.7427   15.3911    3.8818 C   0  0  0  0  0  0  0  0  0  0  0  0
    6.1261   17.0032    2.9217 C   0  0  0  0  0  0  0  0  0  0  0  0
    4.0714   14.2489    3.7642 N   0  0  0  0  0  0  0  0  0  0  0  0
    6.8043   17.5198    1.8910 N   0  0  0  0  0  0  0  0  0  0  0  0
    5.4231   15.8677    2.8164 N   0  0  0  0  0  0  0  0  0  0  0  0
    4.7562   16.0399    5.0673 N   0  0  0  0  0  0  0  0  0  0  0  0
    6.8666   19.5751    5.4721 N   0  0  0  0  0  0  0  0  0  0  0  0
    6.1525   19.0465    6.5584 C   0  0  0  0  0  0  0  0  0  0  0  0
    5.4259   17.8423    6.4083 N   0  0  0  0  0  0  0  0  0  0  0  0
    5.4441   17.1988    5.2211 C   0  0  0  0  0  0  0  0  0  0  0  0
    6.1602   17.7064    4.1321 C   0  0  0  0  0  0  0  0  0  0  0  0
    6.8789   18.8958    4.2378 C   0  0  0  0  0  0  0  0  0  0  0  0
  1  3  1  0  0  0  0
  1  5  1  0  0  0  0
  1  6  2  0  0  0  0
  2  5  2  0  0  0  0
  2 11  1  0  0  0  0
  2  4  1  0  0  0  0
  6 10  1  0  0  0  0
  7  8  2  0  0  0  0
  7 12  1  0  0  0  0
  8  9  1  0  0  0  0
  9 10  2  0  0  0  0
 10 11  1  0  0  0  0
 11 12  2  0  0  0  0
M  END
>  <CHROM.1>
5.72387981,17.16811411,4.35453810,2.20167398,-0.94079221,-2.07200065

>  <Name>
ligand

>  <RI>
0

>  <Rbt.Current_Directory>
/home/itssahil/PROJECTS/Mol_Feturizer/New_Systems/rnas/4LX5

>  <Rbt.Executable>
rbdock ($Id: //depot/dev/client3/rdock/2013.1/src/exe/rbdock.cxx#4 $)

>  <Rbt.Library>
libRbt.so (2013.1, Build901 2013/11/27)

>  <Rbt.Parameter_File>
/export/apps/rDock/src/rDock_2013.1_src/data/scripts/dock_solv.prm

>  <Rbt.Receptor>
prm/blind_docking_100.prm

>  <SCORE>
-15.0394

>  <SCORE.INTER>
-15.0394

>  <SCORE.INTER.CONST>
1

>  <SCORE.INTER.POLAR>
0

>  <SCORE.INTER.ROT>
0

>  <SCORE.INTER.SOLV>
16.0934

>  <SCORE.INTER.VDW>
-18.9907

>  <SCORE.INTER.norm>
-1.25328

>  <SCORE.INTRA>
0

>  <SCORE.INTRA.DIHEDRAL>
0

>  <SCORE.INTRA.DIHEDRAL.0>
0

>  <SCORE.INTRA.POLAR>
0

>  <SCORE.INTRA.POLAR.0>
0

>  <SCORE.INTRA.REPUL>
0

>  <SCORE.INTRA.REPUL.0>
0

>  <SCORE.INTRA.SOLV>
0

>  <SCORE.INTRA.SOLV.lig_0>
-48.1583

>  <SCORE.INTRA.VDW>
0

>  <SCORE.INTRA.VDW.0>
0

>  <SCORE.INTRA.norm>
0

>  <SCORE.RESTR>
0

>  <SCORE.RESTR.CAVITY>
0

>  <SCORE.RESTR.norm>
0

>  <SCORE.SYSTEM>
0

>  <SCORE.SYSTEM.CONST>
0

>  <SCORE.SYSTEM.DIHEDRAL>
0

>  <SCORE.SYSTEM.SOLV>
0

>  <SCORE.SYSTEM.norm>
0

>  <SCORE.heavy>
12

>  <SCORE.norm>
-1.25328

>  <RMSD>
3.024

$$$$
ligand
 OpenBabel11021811503D
libRbt.so/2013.1/901 2013/11/27
 12 13  0  0  0  0  0  0  0  0999 V2000
    4.7436   15.4015    3.8790 C   0  0  0  0  0  0  0  0  0  0  0  0
    6.1363   17.0118    2.9293 C   0  0  0  0  0  0  0  0  0  0  0  0
    4.0675   14.2629    3.7547 N   0  0  0  0  0  0  0  0  0  0  0  0
    6.8191   17.5301    1.9026 N   0  0  0  0  0  0  0  0  0  0  0  0
    5.4285   15.8800    2.8174 N   0  0  0  0  0  0  0  0  0  0  0  0
    4.7574   16.0449    5.0675 N   0  0  0  0  0  0  0  0  0  0  0  0
    6.8826   19.5687    5.4931 N   0  0  0  0  0  0  0  0  0  0  0  0
    6.1637   19.0384    6.5755 C   0  0  0  0  0  0  0  0  0  0  0  0
    5.4321   17.8381    6.4183 N   0  0  0  0  0  0  0  0  0  0  0  0
    5.4501   17.2000    5.2281 C   0  0  0  0  0  0  0  0  0  0  0  0
    6.1708   17.7093    4.1431 C   0  0  0  0  0  0  0  0  0  0  0  0
    6.8946   18.8950    4.2558 C   0  0  0  0  0  0  0  0  0  0  0  0
  1  3  1  0  0  0  0
  1  5  1  0  0  0  0
  1  6  2  0  0  0  0
  2  5  2  0  0  0  0
  2 11  1  0  0  0  0
  2  4  1  0  0  0  0
  6 10  1  0  0  0  0
  7  8  2  0  0  0  0
  7 12  1  0  0  0  0
  8  9  1  0  0  0  0
  9 10  2  0  0  0  0
 10 11  1  0  0  0  0
 11 12  2  0  0  0  0
M  END
>  <CHROM.1>
5.73161750,17.17198062,4.36207489,2.20197820,-0.93581766,-2.06719096

>  <Name>
ligand

>  <RI>
0

>  <Rbt.Current_Directory>
/home/itssahil/PROJECTS/Mol_Feturizer/New_Systems/rnas/4LX5

>  <Rbt.Executable>
rbdock ($Id: //depot/dev/client3/rdock/2013.1/src/exe/rbdock.cxx#4 $)

>  <Rbt.Library>
libRbt.so (2013.1, Build901 2013/11/27)

>  <Rbt.Parameter_File>
/export/apps/rDock/src/rDock_2013.1_src/data/scripts/dock_solv.prm

>  <Rbt.Receptor>
prm/blind_docking_100.prm

>  <SCORE>
-15.0416

>  <SCORE.INTER>
-15.0416

>  <SCORE.INTER.CONST>
1

>  <SCORE.INTER.POLAR>
0

>  <SCORE.INTER.ROT>
0

>  <SCORE.INTER.SOLV>
16.0561

>  <SCORE.INTER.VDW>
-18.9798

>  <SCORE.INTER.norm>
-1.25347

>  <SCORE.INTRA>
0

>  <SCORE.INTRA.DIHEDRAL>
0

>  <SCORE.INTRA.DIHEDRAL.0>
0

>  <SCORE.INTRA.POLAR>
0

>  <SCORE.INTRA.POLAR.0>
0

>  <SCORE.INTRA.REPUL>
0

>  <SCORE.INTRA.REPUL.0>
0

>  <SCORE.INTRA.SOLV>
0

>  <SCORE.INTRA.SOLV.lig_0>
-48.1583

>  <SCORE.INTRA.VDW>
0

>  <SCORE.INTRA.VDW.0>
0

>  <SCORE.INTRA.norm>
0

>  <SCORE.RESTR>
0

>  <SCORE.RESTR.CAVITY>
0

>  <SCORE.RESTR.norm>
0

>  <SCORE.SYSTEM>
0

>  <SCORE.SYSTEM.CONST>
0

>  <SCORE.SYSTEM.DIHEDRAL>
0

>  <SCORE.SYSTEM.SOLV>
0

>  <SCORE.SYSTEM.norm>
0

>  <SCORE.heavy>
12

>  <SCORE.norm>
-1.25347

>  <RMSD>
3.024

$$$$
ligand
 OpenBabel11021811503D
libRbt.so/2013.1/901 2013/11/27
 12 13  0  0  0  0  0  0  0  0999 V2000
    4.7450   15.3908    3.8815 C   0  0  0  0  0  0  0  0  0  0  0  0
    6.1292   17.0042    2.9244 C   0  0  0  0  0  0  0  0  0  0  0  0
    4.0717   14.2502    3.7612 N   0  0  0  0  0  0  0  0  0  0  0  0
    6.8062   17.5233    1.8943 N   0  0  0  0  0  0  0  0  0  0  0  0
    5.4242   15.8702    2.8165 N   0  0  0  0  0  0  0  0  0  0  0  0
    4.7618   16.0356    5.0692 N   0  0  0  0  0  0  0  0  0  0  0  0
    6.8784   19.5660    5.4824 N   0  0  0  0  0  0  0  0  0  0  0  0
    6.1654   19.0348    6.5682 C   0  0  0  0  0  0  0  0  0  0  0  0
    5.4367   17.8322    6.4153 N   0  0  0  0  0  0  0  0  0  0  0  0
    5.4517   17.1929    5.2257 C   0  0  0  0  0  0  0  0  0  0  0  0
    6.1666   17.7031    4.1372 C   0  0  0  0  0  0  0  0  0  0  0  0
    6.8873   18.8910    4.2457 C   0  0  0  0  0  0  0  0  0  0  0  0
  1  3  1  0  0  0  0
  1  5  1  0  0  0  0
  1  6  2  0  0  0  0
  2  5  2  0  0  0  0
  2 11  1  0  0  0  0
  2  4  1  0  0  0  0
  6 10  1  0  0  0  0
  7  8  2  0  0  0  0
  7 12  1  0  0  0  0
  8  9  1  0  0  0  0
  9 10  2  0  0  0  0
 10 11  1  0  0  0  0
 11 12  2  0  0  0  0
M  END
>  <CHROM.1>
5.72983214,17.16471780,4.35858324,2.20568124,-0.94032302,-2.06529776

>  <Name>
ligand

>  <RI>
0

>  <Rbt.Current_Directory>
/home/itssahil/PROJECTS/Mol_Feturizer/New_Systems/rnas/4LX5

>  <Rbt.Executable>
rbdock ($Id: //depot/dev/client3/rdock/2013.1/src/exe/rbdock.cxx#4 $)

>  <Rbt.Library>
libRbt.so (2013.1, Build901 2013/11/27)

>  <Rbt.Parameter_File>
/export/apps/rDock/src/rDock_2013.1_src/data/scripts/dock_solv.prm

>  <Rbt.Receptor>
prm/pocket_docking_5.prm

>  <SCORE>
-15.0478

>  <SCORE.INTER>
-15.0478

>  <SCORE.INTER.CONST>
1

>  <SCORE.INTER.POLAR>
0

>  <SCORE.INTER.ROT>
0

>  <SCORE.INTER.SOLV>
16.0812

>  <SCORE.INTER.VDW>
-18.9923

>  <SCORE.INTER.norm>
-1.25398

>  <SCORE.INTRA>
0

>  <SCORE.INTRA.DIHEDRAL>
0

>  <SCORE.INTRA.DIHEDRAL.0>
0

>  <SCORE.INTRA.POLAR>
0

>  <SCORE.INTRA.POLAR.0>
0

>  <SCORE.INTRA.REPUL>
0

>  <SCORE.INTRA.REPUL.0>
0

>  <SCORE.INTRA.SOLV>
0

>  <SCORE.INTRA.SOLV.lig_0>
-48.1583

>  <SCORE.INTRA.VDW>
0

>  <SCORE.INTRA.VDW.0>
0

>  <SCORE.INTRA.norm>
0

>  <SCORE.RESTR>
0

>  <SCORE.RESTR.CAVITY>
0

>  <SCORE.RESTR.norm>
0

>  <SCORE.SYSTEM>
0

>  <SCORE.SYSTEM.CONST>
0

>  <SCORE.SYSTEM.DIHEDRAL>
0

>  <SCORE.SYSTEM.SOLV>
0

>  <SCORE.SYSTEM.norm>
0

>  <SCORE.heavy>
12

>  <SCORE.norm>
-1.25398

>  <RMSD>
3.024

$$$$
ligand
 OpenBabel11021811503D
libRbt.so/2013.1/901 2013/11/27
 12 13  0  0  0  0  0  0  0  0999 V2000
    4.7452   15.3979    3.8788 C   0  0  0  0  0  0  0  0  0  0  0  0
    6.1340   17.0100    2.9262 C   0  0  0  0  0  0  0  0  0  0  0  0
    4.0744   14.2559    3.7575 N   0  0  0  0  0  0  0  0  0  0  0  0
    6.8176   17.5267    1.8992 N   0  0  0  0  0  0  0  0  0  0  0  0
    5.4313   15.8747    2.8171 N   0  0  0  0  0  0  0  0  0  0  0  0
    4.7527   16.0467    5.0644 N   0  0  0  0  0  0  0  0  0  0  0  0
    6.8614   19.5814    5.4809 N   0  0  0  0  0  0  0  0  0  0  0  0
    6.1415   19.0528    6.5634 C   0  0  0  0  0  0  0  0  0  0  0  0
    5.4155   17.8487    6.4093 N   0  0  0  0  0  0  0  0  0  0  0  0
    5.4399   17.2054    5.2220 C   0  0  0  0  0  0  0  0  0  0  0  0
    6.1618   17.7130    4.1369 C   0  0  0  0  0  0  0  0  0  0  0  0
    6.8801   18.9023    4.2465 C   0  0  0  0  0  0  0  0  0  0  0  0
  1  3  1  0  0  0  0
  1  5  1  0  0  0  0
  1  6  2  0  0  0  0
  2  5  2  0  0  0  0
  2 11  1  0  0  0  0
  2  4  1  0  0  0  0
  6 10  1  0  0  0  0
  7  8  2  0  0  0  0
  7 12  1  0  0  0  0
  8  9  1  0  0  0  0
  9 10  2  0  0  0  0
 10 11  1  0  0  0  0
 11 12  2  0  0  0  0
M  END
>  <CHROM.1>
5.72420352,17.17479016,4.35695573,2.19397928,-0.93811989,-2.07807064

>  <Name>
ligand

>  <RI>
0

>  <Rbt.Current_Directory>
/home/itssahil/PROJECTS/Mol_Feturizer/New_Systems/rnas/4LX5

>  <Rbt.Executable>
rbdock ($Id: //depot/dev/client3/rdock/2013.1/src/exe/rbdock.cxx#4 $)

>  <Rbt.Library>
libRbt.so (2013.1, Build901 2013/11/27)

>  <Rbt.Parameter_File>
/export/apps/rDock/src/rDock_2013.1_src/data/scripts/dock_solv.prm

>  <Rbt.Receptor>
prm/pocket_docking_8.prm

>  <SCORE>
-15.0261

>  <SCORE.INTER>
-15.0261

>  <SCORE.INTER.CONST>
1

>  <SCORE.INTER.POLAR>
0

>  <SCORE.INTER.ROT>
0

>  <SCORE.INTER.SOLV>
16.1085

>  <SCORE.INTER.VDW>
-18.9869

>  <SCORE.INTER.norm>
-1.25218

>  <SCORE.INTRA>
0

>  <SCORE.INTRA.DIHEDRAL>
0

>  <SCORE.INTRA.DIHEDRAL.0>
0

>  <SCORE.INTRA.POLAR>
0

>  <SCORE.INTRA.POLAR.0>
0

>  <SCORE.INTRA.REPUL>
0

>  <SCORE.INTRA.REPUL.0>
0

>  <SCORE.INTRA.SOLV>
0

>  <SCORE.INTRA.SOLV.lig_0>
-48.1583

>  <SCORE.INTRA.VDW>
0

>  <SCORE.INTRA.VDW.0>
0

>  <SCORE.INTRA.norm>
0

>  <SCORE.RESTR>
0

>  <SCORE.RESTR.CAVITY>
0

>  <SCORE.RESTR.norm>
0

>  <SCORE.SYSTEM>
0

>  <SCORE.SYSTEM.CONST>
0

>  <SCORE.SYSTEM.DIHEDRAL>
0

>  <SCORE.SYSTEM.SOLV>
0

>  <SCORE.SYSTEM.norm>
0

>  <SCORE.heavy>
12

>  <SCORE.norm>
-1.25218

>  <RMSD>
3.024

$$$$
ligand
 OpenBabel11021811503D
libRbt.so/2013.1/901 2013/11/27
 12 13  0  0  0  0  0  0  0  0999 V2000
    4.7581   15.3614    3.8884 C   0  0  0  0  0  0  0  0  0  0  0  0
    6.1121   16.9887    2.9119 C   0  0  0  0  0  0  0  0  0  0  0  0
    4.0970   14.2127    3.7782 N   0  0  0  0  0  0  0  0  0  0  0  0
    6.7709   17.5135    1.8729 N   0  0  0  0  0  0  0  0  0  0  0  0
    5.4192   15.8463    2.8146 N   0  0  0  0  0  0  0  0  0  0  0  0
    4.7811   16.0089    5.0745 N   0  0  0  0  0  0  0  0  0  0  0  0
    6.8608   19.5648    5.4557 N   0  0  0  0  0  0  0  0  0  0  0  0
    6.1668   19.0276    6.5509 C   0  0  0  0  0  0  0  0  0  0  0  0
    5.4506   17.8162    6.4089 N   0  0  0  0  0  0  0  0  0  0  0  0
    5.4593   17.1745    5.2206 C   0  0  0  0  0  0  0  0  0  0  0  0
    6.1554   17.6907    4.1228 C   0  0  0  0  0  0  0  0  0  0  0  0
    6.8633   18.8872    4.2204 C   0  0  0  0  0  0  0  0  0  0  0  0
  1  3  1  0  0  0  0
  1  5  1  0  0  0  0
  1  6  2  0  0  0  0
  2  5  2  0  0  0  0
  2 11  1  0  0  0  0
  2  4  1  0  0  0  0
  6 10  1  0  0  0  0
  7  8  2  0  0  0  0
  7 12  1  0  0  0  0
  8  9  1  0  0  0  0
  9 10  2  0  0  0  0
 10 11  1  0  0  0  0
 11 12  2  0  0  0  0
M  END
>  <CHROM.1>
5.72757289,17.14773296,4.35032171,2.21377227,-0.95615569,-2.06084147

>  <Name>
ligand

>  <RI>
0

>  <Rbt.Current_Directory>
/home/itssahil/PROJECTS/Mol_Feturizer/New_Systems/rnas/4LX5

>  <Rbt.Executable>
rbdock ($Id: //depot/dev/client3/rdock/2013.1/src/exe/rbdock.cxx#4 $)

>  <Rbt.Library>
libRbt.so (2013.1, Build901 2013/11/27)

>  <Rbt.Parameter_File>
/export/apps/rDock/src/rDock_2013.1_src/data/scripts/dock_solv.prm

>  <Rbt.Receptor>
prm/pocket_docking_3.prm

>  <SCORE>
-15.0343

>  <SCORE.INTER>
-15.0343

>  <SCORE.INTER.CONST>
1

>  <SCORE.INTER.POLAR>
0

>  <SCORE.INTER.ROT>
0

>  <SCORE.INTER.SOLV>
16.1915

>  <SCORE.INTER.VDW>
-19.02

>  <SCORE.INTER.norm>
-1.25286

>  <SCORE.INTRA>
0

>  <SCORE.INTRA.DIHEDRAL>
0

>  <SCORE.INTRA.DIHEDRAL.0>
0

>  <SCORE.INTRA.POLAR>
0

>  <SCORE.INTRA.POLAR.0>
0

>  <SCORE.INTRA.REPUL>
0

>  <SCORE.INTRA.REPUL.0>
0

>  <SCORE.INTRA.SOLV>
0

>  <SCORE.INTRA.SOLV.lig_0>
-48.1583

>  <SCORE.INTRA.VDW>
0

>  <SCORE.INTRA.VDW.0>
0

>  <SCORE.INTRA.norm>
0

>  <SCORE.RESTR>
0

>  <SCORE.RESTR.CAVITY>
0

>  <SCORE.RESTR.norm>
0

>  <SCORE.SYSTEM>
0

>  <SCORE.SYSTEM.CONST>
0

>  <SCORE.SYSTEM.DIHEDRAL>
0

>  <SCORE.SYSTEM.SOLV>
0

>  <SCORE.SYSTEM.norm>
0

>  <SCORE.heavy>
12

>  <SCORE.norm>
-1.25286

>  <RMSD>
3.025

$$$$
ligand
 OpenBabel11021811503D
libRbt.so/2013.1/901 2013/11/27
 12 13  0  0  0  0  0  0  0  0999 V2000
    4.7483   15.3902    3.8898 C   0  0  0  0  0  0  0  0  0  0  0  0
    6.1242   17.0026    2.9193 C   0  0  0  0  0  0  0  0  0  0  0  0
    4.0757   14.2484    3.7769 N   0  0  0  0  0  0  0  0  0  0  0  0
    6.7938   17.5198    1.8833 N   0  0  0  0  0  0  0  0  0  0  0  0
    5.4199   15.8675    2.8191 N   0  0  0  0  0  0  0  0  0  0  0  0
    4.7721   16.0381    5.0756 N   0  0  0  0  0  0  0  0  0  0  0  0
    6.8871   19.5722    5.4653 N   0  0  0  0  0  0  0  0  0  0  0  0
    6.1820   19.0430    6.5573 C   0  0  0  0  0  0  0  0  0  0  0  0
    5.4538   17.8392    6.4124 N   0  0  0  0  0  0  0  0  0  0  0  0
    5.4617   17.1967    5.2245 C   0  0  0  0  0  0  0  0  0  0  0  0
    6.1687   17.7048    4.1300 C   0  0  0  0  0  0  0  0  0  0  0  0
    6.8887   18.8939    4.2304 C   0  0  0  0  0  0  0  0  0  0  0  0
  1  3  1  0  0  0  0
  1  5  1  0  0  0  0
  1  6  2  0  0  0  0
  2  5  2  0  0  0  0
  2 11  1  0  0  0  0
  2  4  1  0  0  0  0
  6 10  1  0  0  0  0
  7  8  2  0  0  0  0
  7 12  1  0  0  0  0
  8  9  1  0  0  0  0
  9 10  2  0  0  0  0
 10 11  1  0  0  0  0
 11 12  2  0  0  0  0
M  END
>  <CHROM.1>
5.73411855,17.16651487,4.35561412,2.21461320,-0.94451509,-2.06074681

>  <Name>
ligand

>  <RI>
0

>  <Rbt.Current_Directory>
/home/itssahil/PROJECTS/Mol_Feturizer/New_Systems/rnas/4LX5

>  <Rbt.Executable>
rbdock ($Id: //depot/dev/client3/rdock/2013.1/src/exe/rbdock.cxx#4 $)

>  <Rbt.Library>
libRbt.so (2013.1, Build901 2013/11/27)

>  <Rbt.Parameter_File>
/export/apps/rDock/src/rDock_2013.1_src/data/scripts/dock_solv.prm

>  <Rbt.Receptor>
prm/pocket_docking_3.prm

>  <SCORE>
-15.0426

>  <SCORE.INTER>
-15.0426

>  <SCORE.INTER.CONST>
1

>  <SCORE.INTER.POLAR>
0

>  <SCORE.INTER.ROT>
0

>  <SCORE.INTER.SOLV>
16.1082

>  <SCORE.INTER.VDW>
-18.9978

>  <SCORE.INTER.norm>
-1.25355

>  <SCORE.INTRA>
0

>  <SCORE.INTRA.DIHEDRAL>
0

>  <SCORE.INTRA.DIHEDRAL.0>
0

>  <SCORE.INTRA.POLAR>
0

>  <SCORE.INTRA.POLAR.0>
0

>  <SCORE.INTRA.REPUL>
0

>  <SCORE.INTRA.REPUL.0>
0

>  <SCORE.INTRA.SOLV>
0

>  <SCORE.INTRA.SOLV.lig_0>
-48.1583

>  <SCORE.INTRA.VDW>
0

>  <SCORE.INTRA.VDW.0>
0

>  <SCORE.INTRA.norm>
0

>  <SCORE.RESTR>
0

>  <SCORE.RESTR.CAVITY>
0

>  <SCORE.RESTR.norm>
0

>  <SCORE.SYSTEM>
0

>  <SCORE.SYSTEM.CONST>
0

>  <SCORE.SYSTEM.DIHEDRAL>
0

>  <SCORE.SYSTEM.SOLV>
0

>  <SCORE.SYSTEM.norm>
0

>  <SCORE.heavy>
12

>  <SCORE.norm>
-1.25355

>  <RMSD>
3.025

$$$$
ligand
 OpenBabel11021811503D
libRbt.so/2013.1/901 2013/11/27
 12 13  0  0  0  0  0  0  0  0999 V2000
    4.7479   15.3997    3.8834 C   0  0  0  0  0  0  0  0  0  0  0  0
    6.1403   17.0116    2.9359 C   0  0  0  0  0  0  0  0  0  0  0  0
    4.0741   14.2599    3.7584 N   0  0  0  0  0  0  0  0  0  0  0  0
    6.8248   17.5302    1.9104 N   0  0  0  0  0  0  0  0  0  0  0  0
    5.4347   15.8785    2.8231 N   0  0  0  0  0  0  0  0  0  0  0  0
    4.7575   16.0442    5.0713 N   0  0  0  0  0  0  0  0  0  0  0  0
    6.8756   19.5720    5.4993 N   0  0  0  0  0  0  0  0  0  0  0  0
    6.1548   19.0414    6.5803 C   0  0  0  0  0  0  0  0  0  0  0  0
    5.4257   17.8397    6.4222 N   0  0  0  0  0  0  0  0  0  0  0  0
    5.4479   17.2007    5.2327 C   0  0  0  0  0  0  0  0  0  0  0  0
    6.1705   17.7102    4.1491 C   0  0  0  0  0  0  0  0  0  0  0  0
    6.8919   18.8972    4.2626 C   0  0  0  0  0  0  0  0  0  0  0  0
  1  3  1  0  0  0  0
  1  5  1  0  0  0  0
  1  6  2  0  0  0  0
  2  5  2  0  0  0  0
  2 11  1  0  0  0  0
  2  4  1  0  0  0  0
  6 10  1  0  0  0  0
  7  8  2  0  0  0  0
  7 12  1  0  0  0  0
  8  9  1  0  0  0  0
  9 10  2  0  0  0  0
 10 11  1  0  0  0  0
 11 12  2  0  0  0  0
M  END
>  <CHROM.1>
5.73166708,17.17235064,4.36741938,2.19679591,-0.93609191,-2.07224408

>  <Name>
ligand

>  <RI>
0

>  <Rbt.Current_Directory>
/home/itssahil/PROJECTS/Mol_Feturizer/New_Systems/rnas/4LX5

>  <Rbt.Executable>
rbdock ($Id: //depot/dev/client3/rdock/2013.1/src/exe/rbdock.cxx#4 $)

>  <Rbt.Library>
libRbt.so (2013.1, Build901 2013/11/27)

>  <Rbt.Parameter_File>
/export/apps/rDock/src/rDock_2013.1_src/data/scripts/dock_solv.prm

>  <Rbt.Receptor>
prm/pocket_docking_3.prm

>  <SCORE>
-15.0333

>  <SCORE.INTER>
-15.0333

>  <SCORE.INTER.CONST>
1

>  <SCORE.INTER.POLAR>
0

>  <SCORE.INTER.ROT>
0

>  <SCORE.INTER.SOLV>
16.0949

>  <SCORE.INTER.VDW>
-18.9872

>  <SCORE.INTER.norm>
-1.25278

>  <SCORE.INTRA>
0

>  <SCORE.INTRA.DIHEDRAL>
0

>  <SCORE.INTRA.DIHEDRAL.0>
0

>  <SCORE.INTRA.POLAR>
0

>  <SCORE.INTRA.POLAR.0>
0

>  <SCORE.INTRA.REPUL>
0

>  <SCORE.INTRA.REPUL.0>
0

>  <SCORE.INTRA.SOLV>
0

>  <SCORE.INTRA.SOLV.lig_0>
-48.1583

>  <SCORE.INTRA.VDW>
0

>  <SCORE.INTRA.VDW.0>
0

>  <SCORE.INTRA.norm>
0

>  <SCORE.RESTR>
0

>  <SCORE.RESTR.CAVITY>
0

>  <SCORE.RESTR.norm>
0

>  <SCORE.SYSTEM>
0

>  <SCORE.SYSTEM.CONST>
0

>  <SCORE.SYSTEM.DIHEDRAL>
0

>  <SCORE.SYSTEM.SOLV>
0

>  <SCORE.SYSTEM.norm>
0

>  <SCORE.heavy>
12

>  <SCORE.norm>
-1.25278

>  <RMSD>
3.025

$$$$
ligand
 OpenBabel11021811503D
libRbt.so/2013.1/901 2013/11/27
 12 13  0  0  0  0  0  0  0  0999 V2000
    4.7705   15.4606    3.8905 C   0  0  0  0  0  0  0  0  0  0  0  0
    6.1346   17.1085    2.9639 C   0  0  0  0  0  0  0  0  0  0  0  0
    4.1078   14.3163    3.7475 N   0  0  0  0  0  0  0  0  0  0  0  0
    6.8019   17.6571    1.9428 N   0  0  0  0  0  0  0  0  0  0  0  0
    5.4402   15.9703    2.8337 N   0  0  0  0  0  0  0  0  0  0  0  0
    4.7862   16.0788    5.0923 N   0  0  0  0  0  0  0  0  0  0  0  0
    6.8701   19.6199    5.5754 N   0  0  0  0  0  0  0  0  0  0  0  0
    6.1671   19.0575    6.6520 C   0  0  0  0  0  0  0  0  0  0  0  0
    5.4495   17.8515    6.4753 N   0  0  0  0  0  0  0  0  0  0  0  0
    5.4655   17.2391    5.2717 C   0  0  0  0  0  0  0  0  0  0  0  0
    6.1705   17.7805    4.1919 C   0  0  0  0  0  0  0  0  0  0  0  0
    6.8801   18.9727    4.3239 C   0  0  0  0  0  0  0  0  0  0  0  0
  1  3  1  0  0  0  0
  1  5  1  0  0  0  0
  1  6  2  0  0  0  0
  2  5  2  0  0  0  0
  2 11  1  0  0  0  0
  2  4  1  0  0  0  0
  6 10  1  0  0  0  0
  7  8  2  0  0  0  0
  7 12  1  0  0  0  0
  8  9  1  0  0  0  0
  9 10  2  0  0  0  0
 10 11  1  0  0  0  0
 11 12  2  0  0  0  0
M  END
>  <CHROM.1>
5.74002918,17.23301537,4.40302040,2.20442068,-0.95101422,-2.04397240

>  <Name>
ligand

>  <RI>
0

>  <Rbt.Current_Directory>
/home/itssahil/PROJECTS/Mol_Feturizer/New_Systems/rnas/4LX5

>  <Rbt.Executable>
rbdock ($Id: //depot/dev/client3/rdock/2013.1/src/exe/rbdock.cxx#4 $)

>  <Rbt.Library>
libRbt.so (2013.1, Build901 2013/11/27)

>  <Rbt.Parameter_File>
/export/apps/rDock/src/rDock_2013.1_src/data/scripts/dock_solv.prm

>  <Rbt.Receptor>
prm/pocket_docking_6.prm

>  <SCORE>
-15.0568

>  <SCORE.INTER>
-15.0568

>  <SCORE.INTER.CONST>
1

>  <SCORE.INTER.POLAR>
0

>  <SCORE.INTER.ROT>
0

>  <SCORE.INTER.SOLV>
16.0656

>  <SCORE.INTER.VDW>
-18.9931

>  <SCORE.INTER.norm>
-1.25474

>  <SCORE.INTRA>
0

>  <SCORE.INTRA.DIHEDRAL>
0

>  <SCORE.INTRA.DIHEDRAL.0>
0

>  <SCORE.INTRA.POLAR>
0

>  <SCORE.INTRA.POLAR.0>
0

>  <SCORE.INTRA.REPUL>
0

>  <SCORE.INTRA.REPUL.0>
0

>  <SCORE.INTRA.SOLV>
0

>  <SCORE.INTRA.SOLV.lig_0>
-48.1583

>  <SCORE.INTRA.VDW>
0

>  <SCORE.INTRA.VDW.0>
0

>  <SCORE.INTRA.norm>
0

>  <SCORE.RESTR>
0

>  <SCORE.RESTR.CAVITY>
0

>  <SCORE.RESTR.norm>
0

>  <SCORE.SYSTEM>
0

>  <SCORE.SYSTEM.CONST>
0

>  <SCORE.SYSTEM.DIHEDRAL>
0

>  <SCORE.SYSTEM.SOLV>
0

>  <SCORE.SYSTEM.norm>
0

>  <SCORE.heavy>
12

>  <SCORE.norm>
-1.25474

>  <RMSD>
3.025

$$$$
ligand
 OpenBabel11021811503D
libRbt.so/2013.1/901 2013/11/27
 12 13  0  0  0  0  0  0  0  0999 V2000
    4.7655   15.4586    3.8900 C   0  0  0  0  0  0  0  0  0  0  0  0
    6.1309   17.1067    2.9656 C   0  0  0  0  0  0  0  0  0  0  0  0
    4.1045   14.3135    3.7463 N   0  0  0  0  0  0  0  0  0  0  0  0
    6.8008   17.6549    1.9459 N   0  0  0  0  0  0  0  0  0  0  0  0
    5.4380   15.9677    2.8346 N   0  0  0  0  0  0  0  0  0  0  0  0
    4.7770   16.0782    5.0911 N   0  0  0  0  0  0  0  0  0  0  0  0
    6.8558   19.6219    5.5764 N   0  0  0  0  0  0  0  0  0  0  0  0
    6.1502   19.0601    6.6515 C   0  0  0  0  0  0  0  0  0  0  0  0
    5.4343   17.8532    6.4740 N   0  0  0  0  0  0  0  0  0  0  0  0
    5.4546   17.2394    5.2712 C   0  0  0  0  0  0  0  0  0  0  0  0
    6.1624   17.7802    4.1930 C   0  0  0  0  0  0  0  0  0  0  0  0
    6.8703   18.9733    4.3257 C   0  0  0  0  0  0  0  0  0  0  0  0
  1  3  1  0  0  0  0
  1  5  1  0  0  0  0
  1  6  2  0  0  0  0
  2  5  2  0  0  0  0
  2 11  1  0  0  0  0
  2  4  1  0  0  0  0
  6 10  1  0  0  0  0
  7  8  2  0  0  0  0
  7 12  1  0  0  0  0
  8  9  1  0  0  0  0
  9 10  2  0  0  0  0
 10 11  1  0  0  0  0
 11 12  2  0  0  0  0
M  END
>  <CHROM.1>
5.73178428,17.23256439,4.40336330,2.19896693,-0.95050453,-2.04957493

>  <Name>
ligand

>  <RI>
0

>  <Rbt.Current_Directory>
/home/itssahil/PROJECTS/Mol_Feturizer/New_Systems/rnas/4LX5

>  <Rbt.Executable>
rbdock ($Id: //depot/dev/client3/rdock/2013.1/src/exe/rbdock.cxx#4 $)

>  <Rbt.Library>
libRbt.so (2013.1, Build901 2013/11/27)

>  <Rbt.Parameter_File>
/export/apps/rDock/src/rDock_2013.1_src/data/scripts/dock_solv.prm

>  <Rbt.Receptor>
prm/pocket_docking_3.prm

>  <SCORE>
-15.0997

>  <SCORE.INTER>
-15.0997

>  <SCORE.INTER.CONST>
1

>  <SCORE.INTER.POLAR>
0

>  <SCORE.INTER.ROT>
0

>  <SCORE.INTER.SOLV>
16.0495

>  <SCORE.INTER.VDW>
-19.0163

>  <SCORE.INTER.norm>
-1.25831

>  <SCORE.INTRA>
0

>  <SCORE.INTRA.DIHEDRAL>
0

>  <SCORE.INTRA.DIHEDRAL.0>
0

>  <SCORE.INTRA.POLAR>
0

>  <SCORE.INTRA.POLAR.0>
0

>  <SCORE.INTRA.REPUL>
0

>  <SCORE.INTRA.REPUL.0>
0

>  <SCORE.INTRA.SOLV>
0

>  <SCORE.INTRA.SOLV.lig_0>
-48.1583

>  <SCORE.INTRA.VDW>
0

>  <SCORE.INTRA.VDW.0>
0

>  <SCORE.INTRA.norm>
0

>  <SCORE.RESTR>
0

>  <SCORE.RESTR.CAVITY>
0

>  <SCORE.RESTR.norm>
0

>  <SCORE.SYSTEM>
0

>  <SCORE.SYSTEM.CONST>
0

>  <SCORE.SYSTEM.DIHEDRAL>
0

>  <SCORE.SYSTEM.SOLV>
0

>  <SCORE.SYSTEM.norm>
0

>  <SCORE.heavy>
12

>  <SCORE.norm>
-1.25831

>  <RMSD>
3.026

$$$$
ligand
 OpenBabel11021811503D
libRbt.so/2013.1/901 2013/11/27
 12 13  0  0  0  0  0  0  0  0999 V2000
    4.7317   15.4218    3.8833 C   0  0  0  0  0  0  0  0  0  0  0  0
    6.0737   17.0745    2.9333 C   0  0  0  0  0  0  0  0  0  0  0  0
    4.0747   14.2728    3.7532 N   0  0  0  0  0  0  0  0  0  0  0  0
    6.7250   17.6231    1.9018 N   0  0  0  0  0  0  0  0  0  0  0  0
    5.3851   15.9313    2.8163 N   0  0  0  0  0  0  0  0  0  0  0  0
    4.7582   16.0452    5.0823 N   0  0  0  0  0  0  0  0  0  0  0  0
    6.8252   19.6014    5.5251 N   0  0  0  0  0  0  0  0  0  0  0  0
    6.1391   19.0391    6.6127 C   0  0  0  0  0  0  0  0  0  0  0  0
    5.4271   17.8278    6.4498 N   0  0  0  0  0  0  0  0  0  0  0  0
    5.4323   17.2105    5.2486 C   0  0  0  0  0  0  0  0  0  0  0  0
    6.1205   17.7518    4.1580 C   0  0  0  0  0  0  0  0  0  0  0  0
    6.8239   18.9491    4.2763 C   0  0  0  0  0  0  0  0  0  0  0  0
  1  3  1  0  0  0  0
  1  5  1  0  0  0  0
  1  6  2  0  0  0  0
  2  5  2  0  0  0  0
  2 11  1  0  0  0  0
  2  4  1  0  0  0  0
  6 10  1  0  0  0  0
  7  8  2  0  0  0  0
  7 12  1  0  0  0  0
  8  9  1  0  0  0  0
  9 10  2  0  0  0  0
 10 11  1  0  0  0  0
 11 12  2  0  0  0  0
M  END
>  <CHROM.1>
5.69612021,17.20252363,4.37659011,2.21845368,-0.96227013,-2.03664687

>  <Name>
ligand

>  <RI>
0

>  <Rbt.Current_Directory>
/home/itssahil/PROJECTS/Mol_Feturizer/New_Systems/rnas/4LX5

>  <Rbt.Executable>
rbdock ($Id: //depot/dev/client3/rdock/2013.1/src/exe/rbdock.cxx#4 $)

>  <Rbt.Library>
libRbt.so (2013.1, Build901 2013/11/27)

>  <Rbt.Parameter_File>
/export/apps/rDock/src/rDock_2013.1_src/data/scripts/dock_solv.prm

>  <Rbt.Receptor>
prm/pocket_docking_5.prm

>  <SCORE>
-15.0635

>  <SCORE.INTER>
-15.0635

>  <SCORE.INTER.CONST>
1

>  <SCORE.INTER.POLAR>
0

>  <SCORE.INTER.ROT>
0

>  <SCORE.INTER.SOLV>
15.8978

>  <SCORE.INTER.VDW>
-18.9416

>  <SCORE.INTER.norm>
-1.25529

>  <SCORE.INTRA>
0

>  <SCORE.INTRA.DIHEDRAL>
0

>  <SCORE.INTRA.DIHEDRAL.0>
0

>  <SCORE.INTRA.POLAR>
0

>  <SCORE.INTRA.POLAR.0>
0

>  <SCORE.INTRA.REPUL>
0

>  <SCORE.INTRA.REPUL.0>
0

>  <SCORE.INTRA.SOLV>
0

>  <SCORE.INTRA.SOLV.lig_0>
-48.1583

>  <SCORE.INTRA.VDW>
0

>  <SCORE.INTRA.VDW.0>
0

>  <SCORE.INTRA.norm>
0

>  <SCORE.RESTR>
0

>  <SCORE.RESTR.CAVITY>
0

>  <SCORE.RESTR.norm>
0

>  <SCORE.SYSTEM>
0

>  <SCORE.SYSTEM.CONST>
0

>  <SCORE.SYSTEM.DIHEDRAL>
0

>  <SCORE.SYSTEM.SOLV>
0

>  <SCORE.SYSTEM.norm>
0

>  <SCORE.heavy>
12

>  <SCORE.norm>
-1.25529

>  <RMSD>
3.026

$$$$
ligand
 OpenBabel11021811503D
libRbt.so/2013.1/901 2013/11/27
 12 13  0  0  0  0  0  0  0  0999 V2000
    4.7632   15.4616    3.8895 C   0  0  0  0  0  0  0  0  0  0  0  0
    6.1285   17.1080    2.9620 C   0  0  0  0  0  0  0  0  0  0  0  0
    4.1036   14.3154    3.7485 N   0  0  0  0  0  0  0  0  0  0  0  0
    6.7998   17.6533    1.9417 N   0  0  0  0  0  0  0  0  0  0  0  0
    5.4371   15.9678    2.8336 N   0  0  0  0  0  0  0  0  0  0  0  0
    4.7718   16.0854    5.0884 N   0  0  0  0  0  0  0  0  0  0  0  0
    6.8460   19.6329    5.5654 N   0  0  0  0  0  0  0  0  0  0  0  0
    6.1390   19.0741    6.6412 C   0  0  0  0  0  0  0  0  0  0  0  0
    5.4247   17.8658    6.4665 N   0  0  0  0  0  0  0  0  0  0  0  0
    5.4478   17.2479    5.2659 C   0  0  0  0  0  0  0  0  0  0  0  0
    6.1570   17.7858    4.1871 C   0  0  0  0  0  0  0  0  0  0  0  0
    6.8635   18.9800    4.3170 C   0  0  0  0  0  0  0  0  0  0  0  0
  1  3  1  0  0  0  0
  1  5  1  0  0  0  0
  1  6  2  0  0  0  0
  2  5  2  0  0  0  0
  2 11  1  0  0  0  0
  2  4  1  0  0  0  0
  6 10  1  0  0  0  0
  7  8  2  0  0  0  0
  7 12  1  0  0  0  0
  8  9  1  0  0  0  0
  9 10  2  0  0  0  0
 10 11  1  0  0  0  0
 11 12  2  0  0  0  0
M  END
>  <CHROM.1>
5.72665128,17.23839710,4.39854304,2.19528541,-0.95055745,-2.05601509

>  <Name>
ligand

>  <RI>
0

>  <Rbt.Current_Directory>
/home/itssahil/PROJECTS/Mol_Feturizer/New_Systems/rnas/4LX5

>  <Rbt.Executable>
rbdock ($Id: //depot/dev/client3/rdock/2013.1/src/exe/rbdock.cxx#4 $)

>  <Rbt.Library>
libRbt.so (2013.1, Build901 2013/11/27)

>  <Rbt.Parameter_File>
/export/apps/rDock/src/rDock_2013.1_src/data/scripts/dock_solv.prm

>  <Rbt.Receptor>
prm/pocket_docking_6.prm

>  <SCORE>
-15.0599

>  <SCORE.INTER>
-15.0599

>  <SCORE.INTER.CONST>
1

>  <SCORE.INTER.POLAR>
0

>  <SCORE.INTER.ROT>
0

>  <SCORE.INTER.SOLV>
16.0577

>  <SCORE.INTER.VDW>
-18.9925

>  <SCORE.INTER.norm>
-1.25499

>  <SCORE.INTRA>
0

>  <SCORE.INTRA.DIHEDRAL>
0

>  <SCORE.INTRA.DIHEDRAL.0>
0

>  <SCORE.INTRA.POLAR>
0

>  <SCORE.INTRA.POLAR.0>
0

>  <SCORE.INTRA.REPUL>
0

>  <SCORE.INTRA.REPUL.0>
0

>  <SCORE.INTRA.SOLV>
0

>  <SCORE.INTRA.SOLV.lig_0>
-48.1583

>  <SCORE.INTRA.VDW>
0

>  <SCORE.INTRA.VDW.0>
0

>  <SCORE.INTRA.norm>
0

>  <SCORE.RESTR>
0

>  <SCORE.RESTR.CAVITY>
0

>  <SCORE.RESTR.norm>
0

>  <SCORE.SYSTEM>
0

>  <SCORE.SYSTEM.CONST>
0

>  <SCORE.SYSTEM.DIHEDRAL>
0

>  <SCORE.SYSTEM.SOLV>
0

>  <SCORE.SYSTEM.norm>
0

>  <SCORE.heavy>
12

>  <SCORE.norm>
-1.25499

>  <RMSD>
3.026

$$$$
ligand
 OpenBabel11021811503D
libRbt.so/2013.1/901 2013/11/27
 12 13  0  0  0  0  0  0  0  0999 V2000
    4.7495   15.3905    3.8845 C   0  0  0  0  0  0  0  0  0  0  0  0
    6.1384   17.0057    2.9375 C   0  0  0  0  0  0  0  0  0  0  0  0
    4.0747   14.2514    3.7577 N   0  0  0  0  0  0  0  0  0  0  0  0
    6.8186   17.5282    1.9112 N   0  0  0  0  0  0  0  0  0  0  0  0
    5.4319   15.8733    2.8231 N   0  0  0  0  0  0  0  0  0  0  0  0
    4.7646   16.0301    5.0750 N   0  0  0  0  0  0  0  0  0  0  0  0
    6.8858   19.5554    5.5082 N   0  0  0  0  0  0  0  0  0  0  0  0
    6.1695   19.0206    6.5901 C   0  0  0  0  0  0  0  0  0  0  0  0
    5.4393   17.8198    6.4303 N   0  0  0  0  0  0  0  0  0  0  0  0
    5.4560   17.1856    5.2381 C   0  0  0  0  0  0  0  0  0  0  0  0
    6.1741   17.6994    4.1535 C   0  0  0  0  0  0  0  0  0  0  0  0
    6.8965   18.8856    4.2686 C   0  0  0  0  0  0  0  0  0  0  0  0
  1  3  1  0  0  0  0
  1  5  1  0  0  0  0
  1  6  2  0  0  0  0
  2  5  2  0  0  0  0
  2 11  1  0  0  0  0
  2  4  1  0  0  0  0
  6 10  1  0  0  0  0
  7  8  2  0  0  0  0
  7 12  1  0  0  0  0
  8  9  1  0  0  0  0
  9 10  2  0  0  0  0
 10 11  1  0  0  0  0
 11 12  2  0  0  0  0
M  END
>  <CHROM.1>
5.73605089,17.16073792,4.37146427,2.20354121,-0.93784150,-2.06271437

>  <Name>
ligand

>  <RI>
0

>  <Rbt.Current_Directory>
/home/itssahil/PROJECTS/Mol_Feturizer/New_Systems/rnas/4LX5

>  <Rbt.Executable>
rbdock ($Id: //depot/dev/client3/rdock/2013.1/src/exe/rbdock.cxx#4 $)

>  <Rbt.Library>
libRbt.so (2013.1, Build901 2013/11/27)

>  <Rbt.Parameter_File>
/export/apps/rDock/src/rDock_2013.1_src/data/scripts/dock_solv.prm

>  <Rbt.Receptor>
prm/pocket_docking_8.prm

>  <SCORE>
-15.0403

>  <SCORE.INTER>
-15.0403

>  <SCORE.INTER.CONST>
1

>  <SCORE.INTER.POLAR>
0

>  <SCORE.INTER.ROT>
0

>  <SCORE.INTER.SOLV>
16.0818

>  <SCORE.INTER.VDW>
-18.9875

>  <SCORE.INTER.norm>
-1.25336

>  <SCORE.INTRA>
0

>  <SCORE.INTRA.DIHEDRAL>
0

>  <SCORE.INTRA.DIHEDRAL.0>
0

>  <SCORE.INTRA.POLAR>
0

>  <SCORE.INTRA.POLAR.0>
0

>  <SCORE.INTRA.REPUL>
0

>  <SCORE.INTRA.REPUL.0>
0

>  <SCORE.INTRA.SOLV>
0

>  <SCORE.INTRA.SOLV.lig_0>
-48.1583

>  <SCORE.INTRA.VDW>
0

>  <SCORE.INTRA.VDW.0>
0

>  <SCORE.INTRA.norm>
0

>  <SCORE.RESTR>
0

>  <SCORE.RESTR.CAVITY>
0

>  <SCORE.RESTR.norm>
0

>  <SCORE.SYSTEM>
0

>  <SCORE.SYSTEM.CONST>
0

>  <SCORE.SYSTEM.DIHEDRAL>
0

>  <SCORE.SYSTEM.SOLV>
0

>  <SCORE.SYSTEM.norm>
0

>  <SCORE.heavy>
12

>  <SCORE.norm>
-1.25336

>  <RMSD>
3.026

$$$$
ligand
 OpenBabel11021811503D
libRbt.so/2013.1/901 2013/11/27
 12 13  0  0  0  0  0  0  0  0999 V2000
    4.7958   15.4949    3.9130 C   0  0  0  0  0  0  0  0  0  0  0  0
    6.1849   17.1076    2.9621 C   0  0  0  0  0  0  0  0  0  0  0  0
    4.1185   14.3571    3.7881 N   0  0  0  0  0  0  0  0  0  0  0  0
    6.8631   17.6289    1.9338 N   0  0  0  0  0  0  0  0  0  0  0  0
    5.4759   15.9765    2.8497 N   0  0  0  0  0  0  0  0  0  0  0  0
    4.8155   16.1343    5.1035 N   0  0  0  0  0  0  0  0  0  0  0  0
    6.9446   19.6556    5.5308 N   0  0  0  0  0  0  0  0  0  0  0  0
    6.2305   19.1221    6.6148 C   0  0  0  0  0  0  0  0  0  0  0  0
    5.4975   17.9227    6.4570 N   0  0  0  0  0  0  0  0  0  0  0  0
    5.5096   17.2885    5.2647 C   0  0  0  0  0  0  0  0  0  0  0  0
    6.2255   17.8010    4.1780 C   0  0  0  0  0  0  0  0  0  0  0  0
    6.9504   18.9859    4.2912 C   0  0  0  0  0  0  0  0  0  0  0  0
  1  3  1  0  0  0  0
  1  5  1  0  0  0  0
  1  6  2  0  0  0  0
  2  5  2  0  0  0  0
  2 11  1  0  0  0  0
  2  4  1  0  0  0  0
  6 10  1  0  0  0  0
  7  8  2  0  0  0  0
  7 12  1  0  0  0  0
  8  9  1  0  0  0  0
  9 10  2  0  0  0  0
 10 11  1  0  0  0  0
 11 12  2  0  0  0  0
M  END
>  <CHROM.1>
5.78704650,17.26321878,4.39723920,2.20940494,-0.93756823,-2.05789681

>  <Name>
ligand

>  <RI>
0

>  <Rbt.Current_Directory>
/home/itssahil/PROJECTS/Mol_Feturizer/New_Systems/rnas/4LX5

>  <Rbt.Executable>
rbdock ($Id: //depot/dev/client3/rdock/2013.1/src/exe/rbdock.cxx#4 $)

>  <Rbt.Library>
libRbt.so (2013.1, Build901 2013/11/27)

>  <Rbt.Parameter_File>
/export/apps/rDock/src/rDock_2013.1_src/data/scripts/dock_solv.prm

>  <Rbt.Receptor>
prm/pocket_docking_8.prm

>  <SCORE>
-15.0101

>  <SCORE.INTER>
-15.0101

>  <SCORE.INTER.CONST>
1

>  <SCORE.INTER.POLAR>
0

>  <SCORE.INTER.ROT>
0

>  <SCORE.INTER.SOLV>
16.2502

>  <SCORE.INTER.VDW>
-19.0235

>  <SCORE.INTER.norm>
-1.25084

>  <SCORE.INTRA>
0

>  <SCORE.INTRA.DIHEDRAL>
0

>  <SCORE.INTRA.DIHEDRAL.0>
0

>  <SCORE.INTRA.POLAR>
0

>  <SCORE.INTRA.POLAR.0>
0

>  <SCORE.INTRA.REPUL>
0

>  <SCORE.INTRA.REPUL.0>
0

>  <SCORE.INTRA.SOLV>
0

>  <SCORE.INTRA.SOLV.lig_0>
-48.1583

>  <SCORE.INTRA.VDW>
0

>  <SCORE.INTRA.VDW.0>
0

>  <SCORE.INTRA.norm>
0

>  <SCORE.RESTR>
0

>  <SCORE.RESTR.CAVITY>
0

>  <SCORE.RESTR.norm>
0

>  <SCORE.SYSTEM>
0

>  <SCORE.SYSTEM.CONST>
0

>  <SCORE.SYSTEM.DIHEDRAL>
0

>  <SCORE.SYSTEM.SOLV>
0

>  <SCORE.SYSTEM.norm>
0

>  <SCORE.heavy>
12

>  <SCORE.norm>
-1.25084

>  <RMSD>
3.026

$$$$
ligand
 OpenBabel11021811503D
libRbt.so/2013.1/901 2013/11/27
 12 13  0  0  0  0  0  0  0  0999 V2000
    4.8227   15.4754    3.9137 C   0  0  0  0  0  0  0  0  0  0  0  0
    6.1762   17.1280    2.9800 C   0  0  0  0  0  0  0  0  0  0  0  0
    4.1735   14.3226    3.7779 N   0  0  0  0  0  0  0  0  0  0  0  0
    6.8456   17.6729    1.9582 N   0  0  0  0  0  0  0  0  0  0  0  0
    5.4951   15.9810    2.8566 N   0  0  0  0  0  0  0  0  0  0  0  0
    4.8224   16.1066    5.1088 N   0  0  0  0  0  0  0  0  0  0  0  0
    6.8643   19.6748    5.5699 N   0  0  0  0  0  0  0  0  0  0  0  0
    6.1591   19.1164    6.6471 C   0  0  0  0  0  0  0  0  0  0  0  0
    5.4558   17.9009    6.4778 N   0  0  0  0  0  0  0  0  0  0  0  0
    5.4878   17.2759    5.2810 C   0  0  0  0  0  0  0  0  0  0  0  0
    6.1954   17.8134    4.2010 C   0  0  0  0  0  0  0  0  0  0  0  0
    6.8910   19.0146    4.3256 C   0  0  0  0  0  0  0  0  0  0  0  0
  1  3  1  0  0  0  0
  1  5  1  0  0  0  0
  1  6  2  0  0  0  0
  2  5  2  0  0  0  0
  2 11  1  0  0  0  0
  2  4  1  0  0  0  0
  6 10  1  0  0  0  0
  7  8  2  0  0  0  0
  7 12  1  0  0  0  0
  8  9  1  0  0  0  0
  9 10  2  0  0  0  0
 10 11  1  0  0  0  0
 11 12  2  0  0  0  0
M  END
>  <CHROM.1>
5.76913731,17.26359867,4.41457390,2.18386388,-0.95689934,-2.07142399

>  <Name>
ligand

>  <RI>
0

>  <Rbt.Current_Directory>
/home/itssahil/PROJECTS/Mol_Feturizer/New_Systems/rnas/4LX5

>  <Rbt.Executable>
rbdock ($Id: //depot/dev/client3/rdock/2013.1/src/exe/rbdock.cxx#4 $)

>  <Rbt.Library>
libRbt.so (2013.1, Build901 2013/11/27)

>  <Rbt.Parameter_File>
/export/apps/rDock/src/rDock_2013.1_src/data/scripts/dock_solv.prm

>  <Rbt.Receptor>
prm/blind_docking_80.prm

>  <SCORE>
-15.0335

>  <SCORE.INTER>
-15.0335

>  <SCORE.INTER.CONST>
1

>  <SCORE.INTER.POLAR>
0

>  <SCORE.INTER.ROT>
0

>  <SCORE.INTER.SOLV>
16.4501

>  <SCORE.INTER.VDW>
-19.1057

>  <SCORE.INTER.norm>
-1.25279

>  <SCORE.INTRA>
0

>  <SCORE.INTRA.DIHEDRAL>
0

>  <SCORE.INTRA.DIHEDRAL.0>
0

>  <SCORE.INTRA.POLAR>
0

>  <SCORE.INTRA.POLAR.0>
0

>  <SCORE.INTRA.REPUL>
0

>  <SCORE.INTRA.REPUL.0>
0

>  <SCORE.INTRA.SOLV>
0

>  <SCORE.INTRA.SOLV.lig_0>
-48.1583

>  <SCORE.INTRA.VDW>
0

>  <SCORE.INTRA.VDW.0>
0

>  <SCORE.INTRA.norm>
0

>  <SCORE.RESTR>
0

>  <SCORE.RESTR.CAVITY>
0

>  <SCORE.RESTR.norm>
0

>  <SCORE.SYSTEM>
0

>  <SCORE.SYSTEM.CONST>
0

>  <SCORE.SYSTEM.DIHEDRAL>
0

>  <SCORE.SYSTEM.SOLV>
0

>  <SCORE.SYSTEM.norm>
0

>  <SCORE.heavy>
12

>  <SCORE.norm>
-1.25279

>  <RMSD>
3.027

$$$$
ligand
 OpenBabel11021811503D
libRbt.so/2013.1/901 2013/11/27
 12 13  0  0  0  0  0  0  0  0999 V2000
    4.7679   15.4291    3.8996 C   0  0  0  0  0  0  0  0  0  0  0  0
    6.1040   17.0866    2.9496 C   0  0  0  0  0  0  0  0  0  0  0  0
    4.1158   14.2773    3.7696 N   0  0  0  0  0  0  0  0  0  0  0  0
    6.7540   17.6372    1.9184 N   0  0  0  0  0  0  0  0  0  0  0  0
    5.4203   15.9405    2.8328 N   0  0  0  0  0  0  0  0  0  0  0  0
    4.7906   16.0535    5.0980 N   0  0  0  0  0  0  0  0  0  0  0  0
    6.8421   19.6186    5.5403 N   0  0  0  0  0  0  0  0  0  0  0  0
    6.1573   19.0543    6.6276 C   0  0  0  0  0  0  0  0  0  0  0  0
    5.4506   17.8399    6.4649 N   0  0  0  0  0  0  0  0  0  0  0  0
    5.4596   17.2217    5.2642 C   0  0  0  0  0  0  0  0  0  0  0  0
    6.1466   17.7651    4.1739 C   0  0  0  0  0  0  0  0  0  0  0  0
    6.8450   18.9654    4.2920 C   0  0  0  0  0  0  0  0  0  0  0  0
  1  3  1  0  0  0  0
  1  5  1  0  0  0  0
  1  6  2  0  0  0  0
  2  5  2  0  0  0  0
  2 11  1  0  0  0  0
  2  4  1  0  0  0  0
  6 10  1  0  0  0  0
  7  8  2  0  0  0  0
  7 12  1  0  0  0  0
  8  9  1  0  0  0  0
  9 10  2  0  0  0  0
 10 11  1  0  0  0  0
 11 12  2  0  0  0  0
M  END
>  <CHROM.1>
5.72435081,17.21420289,4.39244772,2.21351082,-0.96553095,-2.04146607

>  <Name>
ligand

>  <RI>
0

>  <Rbt.Current_Directory>
/home/itssahil/PROJECTS/Mol_Feturizer/New_Systems/rnas/4LX5

>  <Rbt.Executable>
rbdock ($Id: //depot/dev/client3/rdock/2013.1/src/exe/rbdock.cxx#4 $)

>  <Rbt.Library>
libRbt.so (2013.1, Build901 2013/11/27)

>  <Rbt.Parameter_File>
/export/apps/rDock/src/rDock_2013.1_src/data/scripts/dock_solv.prm

>  <Rbt.Receptor>
prm/pocket_docking_3.prm

>  <SCORE>
-15.0571

>  <SCORE.INTER>
-15.0571

>  <SCORE.INTER.CONST>
1

>  <SCORE.INTER.POLAR>
0

>  <SCORE.INTER.ROT>
0

>  <SCORE.INTER.SOLV>
16.1209

>  <SCORE.INTER.VDW>
-19.0117

>  <SCORE.INTER.norm>
-1.25476

>  <SCORE.INTRA>
0

>  <SCORE.INTRA.DIHEDRAL>
0

>  <SCORE.INTRA.DIHEDRAL.0>
0

>  <SCORE.INTRA.POLAR>
0

>  <SCORE.INTRA.POLAR.0>
0

>  <SCORE.INTRA.REPUL>
0

>  <SCORE.INTRA.REPUL.0>
0

>  <SCORE.INTRA.SOLV>
0

>  <SCORE.INTRA.SOLV.lig_0>
-48.1583

>  <SCORE.INTRA.VDW>
0

>  <SCORE.INTRA.VDW.0>
0

>  <SCORE.INTRA.norm>
0

>  <SCORE.RESTR>
0

>  <SCORE.RESTR.CAVITY>
0

>  <SCORE.RESTR.norm>
0

>  <SCORE.SYSTEM>
0

>  <SCORE.SYSTEM.CONST>
0

>  <SCORE.SYSTEM.DIHEDRAL>
0

>  <SCORE.SYSTEM.SOLV>
0

>  <SCORE.SYSTEM.norm>
0

>  <SCORE.heavy>
12

>  <SCORE.norm>
-1.25476

>  <RMSD>
3.027

$$$$
ligand
 OpenBabel11021811503D
libRbt.so/2013.1/901 2013/11/27
 12 13  0  0  0  0  0  0  0  0999 V2000
    4.7359   15.4198    3.8852 C   0  0  0  0  0  0  0  0  0  0  0  0
    6.0716   17.0789    2.9375 C   0  0  0  0  0  0  0  0  0  0  0  0
    4.0828   14.2687    3.7533 N   0  0  0  0  0  0  0  0  0  0  0  0
    6.7202   17.6318    1.9067 N   0  0  0  0  0  0  0  0  0  0  0  0
    5.3868   15.9336    2.8187 N   0  0  0  0  0  0  0  0  0  0  0  0
    4.7612   16.0407    5.0854 N   0  0  0  0  0  0  0  0  0  0  0  0
    6.8163   19.6031    5.5339 N   0  0  0  0  0  0  0  0  0  0  0  0
    6.1330   19.0363    6.6208 C   0  0  0  0  0  0  0  0  0  0  0  0
    5.4251   17.8229    6.4560 N   0  0  0  0  0  0  0  0  0  0  0  0
    5.4314   17.2080    5.2536 C   0  0  0  0  0  0  0  0  0  0  0  0
    6.1169   17.7539    4.1636 C   0  0  0  0  0  0  0  0  0  0  0  0
    6.8164   18.9533    4.2838 C   0  0  0  0  0  0  0  0  0  0  0  0
  1  3  1  0  0  0  0
  1  5  1  0  0  0  0
  1  6  2  0  0  0  0
  2  5  2  0  0  0  0
  2 11  1  0  0  0  0
  2  4  1  0  0  0  0
  6 10  1  0  0  0  0
  7  8  2  0  0  0  0
  7 12  1  0  0  0  0
  8  9  1  0  0  0  0
  9 10  2  0  0  0  0
 10 11  1  0  0  0  0
 11 12  2  0  0  0  0
M  END
>  <CHROM.1>
5.69461292,17.20272950,4.38137695,2.21692658,-0.96567063,-2.03587563

>  <Name>
ligand

>  <RI>
0

>  <Rbt.Current_Directory>
/home/itssahil/PROJECTS/Mol_Feturizer/New_Systems/rnas/4LX5

>  <Rbt.Executable>
rbdock ($Id: //depot/dev/client3/rdock/2013.1/src/exe/rbdock.cxx#4 $)

>  <Rbt.Library>
libRbt.so (2013.1, Build901 2013/11/27)

>  <Rbt.Parameter_File>
/export/apps/rDock/src/rDock_2013.1_src/data/scripts/dock_solv.prm

>  <Rbt.Receptor>
prm/pocket_docking_6.prm

>  <SCORE>
-15.0986

>  <SCORE.INTER>
-15.0986

>  <SCORE.INTER.CONST>
1

>  <SCORE.INTER.POLAR>
0

>  <SCORE.INTER.ROT>
0

>  <SCORE.INTER.SOLV>
15.9257

>  <SCORE.INTER.VDW>
-18.9743

>  <SCORE.INTER.norm>
-1.25821

>  <SCORE.INTRA>
0

>  <SCORE.INTRA.DIHEDRAL>
0

>  <SCORE.INTRA.DIHEDRAL.0>
0

>  <SCORE.INTRA.POLAR>
0

>  <SCORE.INTRA.POLAR.0>
0

>  <SCORE.INTRA.REPUL>
0

>  <SCORE.INTRA.REPUL.0>
0

>  <SCORE.INTRA.SOLV>
0

>  <SCORE.INTRA.SOLV.lig_0>
-48.1583

>  <SCORE.INTRA.VDW>
0

>  <SCORE.INTRA.VDW.0>
0

>  <SCORE.INTRA.norm>
0

>  <SCORE.RESTR>
0

>  <SCORE.RESTR.CAVITY>
0

>  <SCORE.RESTR.norm>
0

>  <SCORE.SYSTEM>
0

>  <SCORE.SYSTEM.CONST>
0

>  <SCORE.SYSTEM.DIHEDRAL>
0

>  <SCORE.SYSTEM.SOLV>
0

>  <SCORE.SYSTEM.norm>
0

>  <SCORE.heavy>
12

>  <SCORE.norm>
-1.25821

>  <RMSD>
3.027

$$$$
ligand
 OpenBabel11021811503D
libRbt.so/2013.1/901 2013/11/27
 12 13  0  0  0  0  0  0  0  0999 V2000
    4.7592   15.4216    3.8964 C   0  0  0  0  0  0  0  0  0  0  0  0
    6.0985   17.0798    2.9522 C   0  0  0  0  0  0  0  0  0  0  0  0
    4.1084   14.2693    3.7637 N   0  0  0  0  0  0  0  0  0  0  0  0
    6.7525   17.6308    1.9238 N   0  0  0  0  0  0  0  0  0  0  0  0
    5.4159   15.9334    2.8324 N   0  0  0  0  0  0  0  0  0  0  0  0
    4.7765   16.0459    5.0950 N   0  0  0  0  0  0  0  0  0  0  0  0
    6.8243   19.6121    5.5462 N   0  0  0  0  0  0  0  0  0  0  0  0
    6.1352   19.0473    6.6305 C   0  0  0  0  0  0  0  0  0  0  0  0
    5.4298   17.8326    6.4647 N   0  0  0  0  0  0  0  0  0  0  0  0
    5.4442   17.2144    5.2641 C   0  0  0  0  0  0  0  0  0  0  0  0
    6.1355   17.7583    4.1767 C   0  0  0  0  0  0  0  0  0  0  0  0
    6.8327   18.9589    4.2978 C   0  0  0  0  0  0  0  0  0  0  0  0
  1  3  1  0  0  0  0
  1  5  1  0  0  0  0
  1  6  2  0  0  0  0
  2  5  2  0  0  0  0
  2 11  1  0  0  0  0
  2  4  1  0  0  0  0
  6 10  1  0  0  0  0
  7  8  2  0  0  0  0
  7 12  1  0  0  0  0
  8  9  1  0  0  0  0
  9 10  2  0  0  0  0
 10 11  1  0  0  0  0
 11 12  2  0  0  0  0
M  END
>  <CHROM.1>
5.71265187,17.20713551,4.39346236,2.20648452,-0.96408650,-2.04719185

>  <Name>
ligand

>  <RI>
0

>  <Rbt.Current_Directory>
/home/itssahil/PROJECTS/Mol_Feturizer/New_Systems/rnas/4LX5

>  <Rbt.Executable>
rbdock ($Id: //depot/dev/client3/rdock/2013.1/src/exe/rbdock.cxx#4 $)

>  <Rbt.Library>
libRbt.so (2013.1, Build901 2013/11/27)

>  <Rbt.Parameter_File>
/export/apps/rDock/src/rDock_2013.1_src/data/scripts/dock_solv.prm

>  <Rbt.Receptor>
prm/pocket_docking_6.prm

>  <SCORE>
-15.1

>  <SCORE.INTER>
-15.1

>  <SCORE.INTER.CONST>
1

>  <SCORE.INTER.POLAR>
0

>  <SCORE.INTER.ROT>
0

>  <SCORE.INTER.SOLV>
16.0786

>  <SCORE.INTER.VDW>
-19.0262

>  <SCORE.INTER.norm>
-1.25834

>  <SCORE.INTRA>
0

>  <SCORE.INTRA.DIHEDRAL>
0

>  <SCORE.INTRA.DIHEDRAL.0>
0

>  <SCORE.INTRA.POLAR>
0

>  <SCORE.INTRA.POLAR.0>
0

>  <SCORE.INTRA.REPUL>
0

>  <SCORE.INTRA.REPUL.0>
0

>  <SCORE.INTRA.SOLV>
0

>  <SCORE.INTRA.SOLV.lig_0>
-48.1583

>  <SCORE.INTRA.VDW>
0

>  <SCORE.INTRA.VDW.0>
0

>  <SCORE.INTRA.norm>
0

>  <SCORE.RESTR>
0

>  <SCORE.RESTR.CAVITY>
0

>  <SCORE.RESTR.norm>
0

>  <SCORE.SYSTEM>
0

>  <SCORE.SYSTEM.CONST>
0

>  <SCORE.SYSTEM.DIHEDRAL>
0

>  <SCORE.SYSTEM.SOLV>
0

>  <SCORE.SYSTEM.norm>
0

>  <SCORE.heavy>
12

>  <SCORE.norm>
-1.25834

>  <RMSD>
3.028

$$$$
ligand
 OpenBabel11021811503D
libRbt.so/2013.1/901 2013/11/27
 12 13  0  0  0  0  0  0  0  0999 V2000
    4.7669   15.4580    3.9024 C   0  0  0  0  0  0  0  0  0  0  0  0
    6.1154   17.1110    2.9622 C   0  0  0  0  0  0  0  0  0  0  0  0
    4.1107   14.3091    3.7673 N   0  0  0  0  0  0  0  0  0  0  0  0
    6.7735   17.6601    1.9354 N   0  0  0  0  0  0  0  0  0  0  0  0
    5.4274   15.9680    2.8400 N   0  0  0  0  0  0  0  0  0  0  0  0
    4.7856   16.0806    5.1019 N   0  0  0  0  0  0  0  0  0  0  0  0
    6.8500   19.6363    5.5604 N   0  0  0  0  0  0  0  0  0  0  0  0
    6.1567   19.0735    6.6431 C   0  0  0  0  0  0  0  0  0  0  0  0
    5.4457   17.8624    6.4748 N   0  0  0  0  0  0  0  0  0  0  0  0
    5.4587   17.2457    5.2733 C   0  0  0  0  0  0  0  0  0  0  0  0
    6.1541   17.7876    4.1876 C   0  0  0  0  0  0  0  0  0  0  0  0
    6.8570   18.9847    4.3112 C   0  0  0  0  0  0  0  0  0  0  0  0
  1  3  1  0  0  0  0
  1  5  1  0  0  0  0
  1  6  2  0  0  0  0
  2  5  2  0  0  0  0
  2 11  1  0  0  0  0
  2  4  1  0  0  0  0
  6 10  1  0  0  0  0
  7  8  2  0  0  0  0
  7 12  1  0  0  0  0
  8  9  1  0  0  0  0
  9 10  2  0  0  0  0
 10 11  1  0  0  0  0
 11 12  2  0  0  0  0
M  END
>  <CHROM.1>
5.72828944,17.23826994,4.40308268,2.20825934,-0.95916719,-2.04442959

>  <Name>
ligand

>  <RI>
0

>  <Rbt.Current_Directory>
/home/itssahil/PROJECTS/Mol_Feturizer/New_Systems/rnas/4LX5

>  <Rbt.Executable>
rbdock ($Id: //depot/dev/client3/rdock/2013.1/src/exe/rbdock.cxx#4 $)

>  <Rbt.Library>
libRbt.so (2013.1, Build901 2013/11/27)

>  <Rbt.Parameter_File>
/export/apps/rDock/src/rDock_2013.1_src/data/scripts/dock_solv.prm

>  <Rbt.Receptor>
prm/pocket_docking_8.prm

>  <SCORE>
-15.0687

>  <SCORE.INTER>
-15.0687

>  <SCORE.INTER.CONST>
1

>  <SCORE.INTER.POLAR>
0

>  <SCORE.INTER.ROT>
0

>  <SCORE.INTER.SOLV>
16.0862

>  <SCORE.INTER.VDW>
-19.0079

>  <SCORE.INTER.norm>
-1.25572

>  <SCORE.INTRA>
0

>  <SCORE.INTRA.DIHEDRAL>
0

>  <SCORE.INTRA.DIHEDRAL.0>
0

>  <SCORE.INTRA.POLAR>
0

>  <SCORE.INTRA.POLAR.0>
0

>  <SCORE.INTRA.REPUL>
0

>  <SCORE.INTRA.REPUL.0>
0

>  <SCORE.INTRA.SOLV>
0

>  <SCORE.INTRA.SOLV.lig_0>
-48.1583

>  <SCORE.INTRA.VDW>
0

>  <SCORE.INTRA.VDW.0>
0

>  <SCORE.INTRA.norm>
0

>  <SCORE.RESTR>
0

>  <SCORE.RESTR.CAVITY>
0

>  <SCORE.RESTR.norm>
0

>  <SCORE.SYSTEM>
0

>  <SCORE.SYSTEM.CONST>
0

>  <SCORE.SYSTEM.DIHEDRAL>
0

>  <SCORE.SYSTEM.SOLV>
0

>  <SCORE.SYSTEM.norm>
0

>  <SCORE.heavy>
12

>  <SCORE.norm>
-1.25572

>  <RMSD>
3.028

$$$$
ligand
 OpenBabel11021811503D
libRbt.so/2013.1/901 2013/11/27
 12 13  0  0  0  0  0  0  0  0999 V2000
    4.7788   15.4487    3.9089 C   0  0  0  0  0  0  0  0  0  0  0  0
    6.1217   17.1048    2.9661 C   0  0  0  0  0  0  0  0  0  0  0  0
    4.1279   14.2965    3.7761 N   0  0  0  0  0  0  0  0  0  0  0  0
    6.7792   17.6537    1.9388 N   0  0  0  0  0  0  0  0  0  0  0  0
    5.4390   15.9584    2.8461 N   0  0  0  0  0  0  0  0  0  0  0  0
    4.7926   16.0750    5.1065 N   0  0  0  0  0  0  0  0  0  0  0  0
    6.8404   19.6411    5.5580 N   0  0  0  0  0  0  0  0  0  0  0  0
    6.1477   19.0785    6.6411 C   0  0  0  0  0  0  0  0  0  0  0  0
    5.4424   17.8638    6.4752 N   0  0  0  0  0  0  0  0  0  0  0  0
    5.4602   17.2436    5.2756 C   0  0  0  0  0  0  0  0  0  0  0  0
    6.1552   17.7853    4.1895 C   0  0  0  0  0  0  0  0  0  0  0  0
    6.8525   18.9858    4.3108 C   0  0  0  0  0  0  0  0  0  0  0  0
  1  3  1  0  0  0  0
  1  5  1  0  0  0  0
  1  6  2  0  0  0  0
  2  5  2  0  0  0  0
  2 11  1  0  0  0  0
  2  4  1  0  0  0  0
  6 10  1  0  0  0  0
  7  8  2  0  0  0  0
  7 12  1  0  0  0  0
  8  9  1  0  0  0  0
  9 10  2  0  0  0  0
 10 11  1  0  0  0  0
 11 12  2  0  0  0  0
M  END
>  <CHROM.1>
5.73142555,17.23467553,4.40589566,2.20193821,-0.96226869,-2.05263302

>  <Name>
ligand

>  <RI>
0

>  <Rbt.Current_Directory>
/home/itssahil/PROJECTS/Mol_Feturizer/New_Systems/rnas/4LX5

>  <Rbt.Executable>
rbdock ($Id: //depot/dev/client3/rdock/2013.1/src/exe/rbdock.cxx#4 $)

>  <Rbt.Library>
libRbt.so (2013.1, Build901 2013/11/27)

>  <Rbt.Parameter_File>
/export/apps/rDock/src/rDock_2013.1_src/data/scripts/dock_solv.prm

>  <Rbt.Receptor>
prm/pocket_docking_3.prm

>  <SCORE>
-15.0566

>  <SCORE.INTER>
-15.0566

>  <SCORE.INTER.CONST>
1

>  <SCORE.INTER.POLAR>
0

>  <SCORE.INTER.ROT>
0

>  <SCORE.INTER.SOLV>
16.186

>  <SCORE.INTER.VDW>
-19.0331

>  <SCORE.INTER.norm>
-1.25472

>  <SCORE.INTRA>
0

>  <SCORE.INTRA.DIHEDRAL>
0

>  <SCORE.INTRA.DIHEDRAL.0>
0

>  <SCORE.INTRA.POLAR>
0

>  <SCORE.INTRA.POLAR.0>
0

>  <SCORE.INTRA.REPUL>
0

>  <SCORE.INTRA.REPUL.0>
0

>  <SCORE.INTRA.SOLV>
0

>  <SCORE.INTRA.SOLV.lig_0>
-48.1583

>  <SCORE.INTRA.VDW>
0

>  <SCORE.INTRA.VDW.0>
0

>  <SCORE.INTRA.norm>
0

>  <SCORE.RESTR>
0

>  <SCORE.RESTR.CAVITY>
0

>  <SCORE.RESTR.norm>
0

>  <SCORE.SYSTEM>
0

>  <SCORE.SYSTEM.CONST>
0

>  <SCORE.SYSTEM.DIHEDRAL>
0

>  <SCORE.SYSTEM.SOLV>
0

>  <SCORE.SYSTEM.norm>
0

>  <SCORE.heavy>
12

>  <SCORE.norm>
-1.25472

>  <RMSD>
3.029

$$$$
ligand
 OpenBabel11021811503D
libRbt.so/2013.1/901 2013/11/27
 12 13  0  0  0  0  0  0  0  0999 V2000
    4.2609   15.7670    3.7657 C   0  0  0  0  0  0  0  0  0  0  0  0
    5.9484   17.0924    2.8544 C   0  0  0  0  0  0  0  0  0  0  0  0
    3.3658   14.7955    3.6110 N   0  0  0  0  0  0  0  0  0  0  0  0
    6.7174   17.4969    1.8375 N   0  0  0  0  0  0  0  0  0  0  0  0
    5.0237   16.1335    2.7126 N   0  0  0  0  0  0  0  0  0  0  0  0
    4.4119   16.3510    4.9751 N   0  0  0  0  0  0  0  0  0  0  0  0
    7.2143   19.3497    5.4944 N   0  0  0  0  0  0  0  0  0  0  0  0
    6.4077   18.9387    6.5668 C   0  0  0  0  0  0  0  0  0  0  0  0
    5.4455   17.9193    6.3778 N   0  0  0  0  0  0  0  0  0  0  0  0
    5.3267   17.3341    5.1665 C   0  0  0  0  0  0  0  0  0  0  0  0
    6.1308   17.7242    4.0907 C   0  0  0  0  0  0  0  0  0  0  0  0
    7.0821   18.7325    4.2347 C   0  0  0  0  0  0  0  0  0  0  0  0
  1  3  1  0  0  0  0
  1  5  1  0  0  0  0
  1  6  2  0  0  0  0
  2  5  2  0  0  0  0
  2 11  1  0  0  0  0
  2  4  1  0  0  0  0
  6 10  1  0  0  0  0
  7  8  2  0  0  0  0
  7 12  1  0  0  0  0
  8  9  1  0  0  0  0
  9 10  2  0  0  0  0
 10 11  1  0  0  0  0
 11 12  2  0  0  0  0
M  END
>  <CHROM.1>
5.59222625,17.28024717,4.29657538,2.34174013,-0.75183757,-1.92691644

>  <Name>
ligand

>  <RI>
0

>  <Rbt.Current_Directory>
/home/itssahil/PROJECTS/Mol_Feturizer/New_Systems/rnas/4LX5

>  <Rbt.Executable>
rbdock ($Id: //depot/dev/client3/rdock/2013.1/src/exe/rbdock.cxx#4 $)

>  <Rbt.Library>
libRbt.so (2013.1, Build901 2013/11/27)

>  <Rbt.Parameter_File>
/export/apps/rDock/src/rDock_2013.1_src/data/scripts/dock_solv.prm

>  <Rbt.Receptor>
prm/pocket_docking_5.prm

>  <SCORE>
-14.3207

>  <SCORE.INTER>
-14.3207

>  <SCORE.INTER.CONST>
1

>  <SCORE.INTER.POLAR>
0

>  <SCORE.INTER.ROT>
0

>  <SCORE.INTER.SOLV>
13.2036

>  <SCORE.INTER.VDW>
-17.5483

>  <SCORE.INTER.norm>
-1.19339

>  <SCORE.INTRA>
0

>  <SCORE.INTRA.DIHEDRAL>
0

>  <SCORE.INTRA.DIHEDRAL.0>
0

>  <SCORE.INTRA.POLAR>
0

>  <SCORE.INTRA.POLAR.0>
0

>  <SCORE.INTRA.REPUL>
0

>  <SCORE.INTRA.REPUL.0>
0

>  <SCORE.INTRA.SOLV>
0

>  <SCORE.INTRA.SOLV.lig_0>
-48.1583

>  <SCORE.INTRA.VDW>
0

>  <SCORE.INTRA.VDW.0>
0

>  <SCORE.INTRA.norm>
0

>  <SCORE.RESTR>
0

>  <SCORE.RESTR.CAVITY>
0

>  <SCORE.RESTR.norm>
0

>  <SCORE.SYSTEM>
0

>  <SCORE.SYSTEM.CONST>
0

>  <SCORE.SYSTEM.DIHEDRAL>
0

>  <SCORE.SYSTEM.SOLV>
0

>  <SCORE.SYSTEM.norm>
0

>  <SCORE.heavy>
12

>  <SCORE.norm>
-1.19339

>  <RMSD>
3.029

$$$$
ligand
 OpenBabel11021811503D
libRbt.so/2013.1/901 2013/11/27
 12 13  0  0  0  0  0  0  0  0999 V2000
    4.7469   15.3937    3.9064 C   0  0  0  0  0  0  0  0  0  0  0  0
    6.0929   17.0232    2.9226 C   0  0  0  0  0  0  0  0  0  0  0  0
    4.0837   14.2459    3.7987 N   0  0  0  0  0  0  0  0  0  0  0  0
    6.7424   17.5509    1.8792 N   0  0  0  0  0  0  0  0  0  0  0  0
    5.3982   15.8817    2.8280 N   0  0  0  0  0  0  0  0  0  0  0  0
    4.7816   16.0372    5.0944 N   0  0  0  0  0  0  0  0  0  0  0  0
    6.8679   19.5901    5.4678 N   0  0  0  0  0  0  0  0  0  0  0  0
    6.1838   19.0499    6.5677 C   0  0  0  0  0  0  0  0  0  0  0  0
    5.4652   17.8396    6.4284 N   0  0  0  0  0  0  0  0  0  0  0  0
    5.4621   17.2018    5.2380 C   0  0  0  0  0  0  0  0  0  0  0  0
    6.1482   17.7211    4.1354 C   0  0  0  0  0  0  0  0  0  0  0  0
    6.8581   18.9167    4.2303 C   0  0  0  0  0  0  0  0  0  0  0  0
  1  3  1  0  0  0  0
  1  5  1  0  0  0  0
  1  6  2  0  0  0  0
  2  5  2  0  0  0  0
  2 11  1  0  0  0  0
  2  4  1  0  0  0  0
  6 10  1  0  0  0  0
  7  8  2  0  0  0  0
  7 12  1  0  0  0  0
  8  9  1  0  0  0  0
  9 10  2  0  0  0  0
 10 11  1  0  0  0  0
 11 12  2  0  0  0  0
M  END
>  <CHROM.1>
5.72215628,17.17771036,4.36512460,2.22898077,-0.95979658,-2.04506424

>  <Name>
ligand

>  <RI>
0

>  <Rbt.Current_Directory>
/home/itssahil/PROJECTS/Mol_Feturizer/New_Systems/rnas/4LX5

>  <Rbt.Executable>
rbdock ($Id: //depot/dev/client3/rdock/2013.1/src/exe/rbdock.cxx#4 $)

>  <Rbt.Library>
libRbt.so (2013.1, Build901 2013/11/27)

>  <Rbt.Parameter_File>
/export/apps/rDock/src/rDock_2013.1_src/data/scripts/dock_solv.prm

>  <Rbt.Receptor>
prm/pocket_docking_5.prm

>  <SCORE>
-15.0124

>  <SCORE.INTER>
-15.0124

>  <SCORE.INTER.CONST>
1

>  <SCORE.INTER.POLAR>
0

>  <SCORE.INTER.ROT>
0

>  <SCORE.INTER.SOLV>
16.0342

>  <SCORE.INTER.VDW>
-18.953

>  <SCORE.INTER.norm>
-1.25103

>  <SCORE.INTRA>
0

>  <SCORE.INTRA.DIHEDRAL>
0

>  <SCORE.INTRA.DIHEDRAL.0>
0

>  <SCORE.INTRA.POLAR>
0

>  <SCORE.INTRA.POLAR.0>
0

>  <SCORE.INTRA.REPUL>
0

>  <SCORE.INTRA.REPUL.0>
0

>  <SCORE.INTRA.SOLV>
0

>  <SCORE.INTRA.SOLV.lig_0>
-48.1583

>  <SCORE.INTRA.VDW>
0

>  <SCORE.INTRA.VDW.0>
0

>  <SCORE.INTRA.norm>
0

>  <SCORE.RESTR>
0

>  <SCORE.RESTR.CAVITY>
0

>  <SCORE.RESTR.norm>
0

>  <SCORE.SYSTEM>
0

>  <SCORE.SYSTEM.CONST>
0

>  <SCORE.SYSTEM.DIHEDRAL>
0

>  <SCORE.SYSTEM.SOLV>
0

>  <SCORE.SYSTEM.norm>
0

>  <SCORE.heavy>
12

>  <SCORE.norm>
-1.25103

>  <RMSD>
3.029

$$$$
ligand
 OpenBabel11021811503D
libRbt.so/2013.1/901 2013/11/27
 12 13  0  0  0  0  0  0  0  0999 V2000
    4.7631   15.4594    3.9031 C   0  0  0  0  0  0  0  0  0  0  0  0
    6.1125   17.1115    2.9626 C   0  0  0  0  0  0  0  0  0  0  0  0
    4.1065   14.3107    3.7684 N   0  0  0  0  0  0  0  0  0  0  0  0
    6.7711   17.6599    1.9357 N   0  0  0  0  0  0  0  0  0  0  0  0
    5.4241   15.9687    2.8407 N   0  0  0  0  0  0  0  0  0  0  0  0
    4.7816   16.0826    5.1023 N   0  0  0  0  0  0  0  0  0  0  0  0
    6.8469   19.6379    5.5598 N   0  0  0  0  0  0  0  0  0  0  0  0
    6.1531   19.0758    6.6425 C   0  0  0  0  0  0  0  0  0  0  0  0
    5.4417   17.8648    6.4746 N   0  0  0  0  0  0  0  0  0  0  0  0
    5.4549   17.2476    5.2734 C   0  0  0  0  0  0  0  0  0  0  0  0
    6.1509   17.7887    4.1877 C   0  0  0  0  0  0  0  0  0  0  0  0
    6.8541   18.9857    4.3109 C   0  0  0  0  0  0  0  0  0  0  0  0
  1  3  1  0  0  0  0
  1  5  1  0  0  0  0
  1  6  2  0  0  0  0
  2  5  2  0  0  0  0
  2 11  1  0  0  0  0
  2  4  1  0  0  0  0
  6 10  1  0  0  0  0
  7  8  2  0  0  0  0
  7 12  1  0  0  0  0
  8  9  1  0  0  0  0
  9 10  2  0  0  0  0
 10 11  1  0  0  0  0
 11 12  2  0  0  0  0
M  END
>  <CHROM.1>
5.72485086,17.23961801,4.40325220,2.20797107,-0.95871953,-2.04514700

>  <Name>
ligand

>  <RI>
0

>  <Rbt.Current_Directory>
/home/itssahil/PROJECTS/Mol_Feturizer/New_Systems/rnas/4LX5

>  <Rbt.Executable>
rbdock ($Id: //depot/dev/client3/rdock/2013.1/src/exe/rbdock.cxx#4 $)

>  <Rbt.Library>
libRbt.so (2013.1, Build901 2013/11/27)

>  <Rbt.Parameter_File>
/export/apps/rDock/src/rDock_2013.1_src/data/scripts/dock_solv.prm

>  <Rbt.Receptor>
prm/pocket_docking_7.prm

>  <SCORE>
-15.0689

>  <SCORE.INTER>
-15.0689

>  <SCORE.INTER.CONST>
1

>  <SCORE.INTER.POLAR>
0

>  <SCORE.INTER.ROT>
0

>  <SCORE.INTER.SOLV>
16.0654

>  <SCORE.INTER.VDW>
-19.0011

>  <SCORE.INTER.norm>
-1.25575

>  <SCORE.INTRA>
0

>  <SCORE.INTRA.DIHEDRAL>
0

>  <SCORE.INTRA.DIHEDRAL.0>
0

>  <SCORE.INTRA.POLAR>
0

>  <SCORE.INTRA.POLAR.0>
0

>  <SCORE.INTRA.REPUL>
0

>  <SCORE.INTRA.REPUL.0>
0

>  <SCORE.INTRA.SOLV>
0

>  <SCORE.INTRA.SOLV.lig_0>
-48.1583

>  <SCORE.INTRA.VDW>
0

>  <SCORE.INTRA.VDW.0>
0

>  <SCORE.INTRA.norm>
0

>  <SCORE.RESTR>
0

>  <SCORE.RESTR.CAVITY>
0

>  <SCORE.RESTR.norm>
0

>  <SCORE.SYSTEM>
0

>  <SCORE.SYSTEM.CONST>
0

>  <SCORE.SYSTEM.DIHEDRAL>
0

>  <SCORE.SYSTEM.SOLV>
0

>  <SCORE.SYSTEM.norm>
0

>  <SCORE.heavy>
12

>  <SCORE.norm>
-1.25575

>  <RMSD>
3.029

$$$$
ligand
 OpenBabel11021811503D
libRbt.so/2013.1/901 2013/11/27
 12 13  0  0  0  0  0  0  0  0999 V2000
    4.7695   15.4554    3.9124 C   0  0  0  0  0  0  0  0  0  0  0  0
    6.1077   17.1114    2.9627 C   0  0  0  0  0  0  0  0  0  0  0  0
    4.1174   14.3035    3.7829 N   0  0  0  0  0  0  0  0  0  0  0  0
    6.7596   17.6604    1.9319 N   0  0  0  0  0  0  0  0  0  0  0  0
    5.4239   15.9653    2.8461 N   0  0  0  0  0  0  0  0  0  0  0  0
    4.7903   16.0813    5.1101 N   0  0  0  0  0  0  0  0  0  0  0  0
    6.8419   19.6465    5.5514 N   0  0  0  0  0  0  0  0  0  0  0  0
    6.1551   19.0838    6.6382 C   0  0  0  0  0  0  0  0  0  0  0  0
    5.4483   17.8694    6.4758 N   0  0  0  0  0  0  0  0  0  0  0  0
    5.4592   17.2496    5.2759 C   0  0  0  0  0  0  0  0  0  0  0  0
    6.1483   17.7914    4.1861 C   0  0  0  0  0  0  0  0  0  0  0  0
    6.8468   18.9917    4.3039 C   0  0  0  0  0  0  0  0  0  0  0  0
  1  3  1  0  0  0  0
  1  5  1  0  0  0  0
  1  6  2  0  0  0  0
  2  5  2  0  0  0  0
  2 11  1  0  0  0  0
  2  4  1  0  0  0  0
  6 10  1  0  0  0  0
  7  8  2  0  0  0  0
  7 12  1  0  0  0  0
  8  9  1  0  0  0  0
  9 10  2  0  0  0  0
 10 11  1  0  0  0  0
 11 12  2  0  0  0  0
M  END
>  <CHROM.1>
5.72554993,17.24089644,4.40468869,2.21097481,-0.96452107,-2.04484053

>  <Name>
ligand

>  <RI>
0

>  <Rbt.Current_Directory>
/home/itssahil/PROJECTS/Mol_Feturizer/New_Systems/rnas/4LX5

>  <Rbt.Executable>
rbdock ($Id: //depot/dev/client3/rdock/2013.1/src/exe/rbdock.cxx#4 $)

>  <Rbt.Library>
libRbt.so (2013.1, Build901 2013/11/27)

>  <Rbt.Parameter_File>
/export/apps/rDock/src/rDock_2013.1_src/data/scripts/dock_solv.prm

>  <Rbt.Receptor>
prm/pocket_docking_3.prm

>  <SCORE>
-15.065

>  <SCORE.INTER>
-15.065

>  <SCORE.INTER.CONST>
1

>  <SCORE.INTER.POLAR>
0

>  <SCORE.INTER.ROT>
0

>  <SCORE.INTER.SOLV>
16.1286

>  <SCORE.INTER.VDW>
-19.0195

>  <SCORE.INTER.norm>
-1.25542

>  <SCORE.INTRA>
0

>  <SCORE.INTRA.DIHEDRAL>
0

>  <SCORE.INTRA.DIHEDRAL.0>
0

>  <SCORE.INTRA.POLAR>
0

>  <SCORE.INTRA.POLAR.0>
0

>  <SCORE.INTRA.REPUL>
0

>  <SCORE.INTRA.REPUL.0>
0

>  <SCORE.INTRA.SOLV>
0

>  <SCORE.INTRA.SOLV.lig_0>
-48.1583

>  <SCORE.INTRA.VDW>
0

>  <SCORE.INTRA.VDW.0>
0

>  <SCORE.INTRA.norm>
0

>  <SCORE.RESTR>
0

>  <SCORE.RESTR.CAVITY>
0

>  <SCORE.RESTR.norm>
0

>  <SCORE.SYSTEM>
0

>  <SCORE.SYSTEM.CONST>
0

>  <SCORE.SYSTEM.DIHEDRAL>
0

>  <SCORE.SYSTEM.SOLV>
0

>  <SCORE.SYSTEM.norm>
0

>  <SCORE.heavy>
12

>  <SCORE.norm>
-1.25542

>  <RMSD>
3.030

$$$$
ligand
 OpenBabel11021811503D
libRbt.so/2013.1/901 2013/11/27
 12 13  0  0  0  0  0  0  0  0999 V2000
    4.7552   15.4191    3.9029 C   0  0  0  0  0  0  0  0  0  0  0  0
    6.0872   17.0779    2.9494 C   0  0  0  0  0  0  0  0  0  0  0  0
    4.1057   14.2655    3.7754 N   0  0  0  0  0  0  0  0  0  0  0  0
    6.7356   17.6279    1.9170 N   0  0  0  0  0  0  0  0  0  0  0  0
    5.4061   15.9300    2.8350 N   0  0  0  0  0  0  0  0  0  0  0  0
    4.7768   16.0458    5.1002 N   0  0  0  0  0  0  0  0  0  0  0  0
    6.8204   19.6164    5.5351 N   0  0  0  0  0  0  0  0  0  0  0  0
    6.1373   19.0526    6.6237 C   0  0  0  0  0  0  0  0  0  0  0  0
    5.4333   17.8363    6.4635 N   0  0  0  0  0  0  0  0  0  0  0  0
    5.4432   17.2159    5.2639 C   0  0  0  0  0  0  0  0  0  0  0  0
    6.1287   17.7588    4.1724 C   0  0  0  0  0  0  0  0  0  0  0  0
    6.8243   18.9608    4.2880 C   0  0  0  0  0  0  0  0  0  0  0  0
  1  3  1  0  0  0  0
  1  5  1  0  0  0  0
  1  6  2  0  0  0  0
  2  5  2  0  0  0  0
  2 11  1  0  0  0  0
  2  4  1  0  0  0  0
  6 10  1  0  0  0  0
  7  8  2  0  0  0  0
  7 12  1  0  0  0  0
  8  9  1  0  0  0  0
  9 10  2  0  0  0  0
 10 11  1  0  0  0  0
 11 12  2  0  0  0  0
M  END
>  <CHROM.1>
5.70775143,17.20731600,4.39215158,2.21220334,-0.96770665,-2.04443438

>  <Name>
ligand

>  <RI>
0

>  <Rbt.Current_Directory>
/home/itssahil/PROJECTS/Mol_Feturizer/New_Systems/rnas/4LX5

>  <Rbt.Executable>
rbdock ($Id: //depot/dev/client3/rdock/2013.1/src/exe/rbdock.cxx#4 $)

>  <Rbt.Library>
libRbt.so (2013.1, Build901 2013/11/27)

>  <Rbt.Parameter_File>
/export/apps/rDock/src/rDock_2013.1_src/data/scripts/dock_solv.prm

>  <Rbt.Receptor>
prm/pocket_docking_6.prm

>  <SCORE>
-15.1065

>  <SCORE.INTER>
-15.1065

>  <SCORE.INTER.CONST>
1

>  <SCORE.INTER.POLAR>
0

>  <SCORE.INTER.ROT>
0

>  <SCORE.INTER.SOLV>
16.0674

>  <SCORE.INTER.VDW>
-19.0268

>  <SCORE.INTER.norm>
-1.25887

>  <SCORE.INTRA>
0

>  <SCORE.INTRA.DIHEDRAL>
0

>  <SCORE.INTRA.DIHEDRAL.0>
0

>  <SCORE.INTRA.POLAR>
0

>  <SCORE.INTRA.POLAR.0>
0

>  <SCORE.INTRA.REPUL>
0

>  <SCORE.INTRA.REPUL.0>
0

>  <SCORE.INTRA.SOLV>
0

>  <SCORE.INTRA.SOLV.lig_0>
-48.1583

>  <SCORE.INTRA.VDW>
0

>  <SCORE.INTRA.VDW.0>
0

>  <SCORE.INTRA.norm>
0

>  <SCORE.RESTR>
0

>  <SCORE.RESTR.CAVITY>
0

>  <SCORE.RESTR.norm>
0

>  <SCORE.SYSTEM>
0

>  <SCORE.SYSTEM.CONST>
0

>  <SCORE.SYSTEM.DIHEDRAL>
0

>  <SCORE.SYSTEM.SOLV>
0

>  <SCORE.SYSTEM.norm>
0

>  <SCORE.heavy>
12

>  <SCORE.norm>
-1.25887

>  <RMSD>
3.030

$$$$
ligand
 OpenBabel11021811503D
libRbt.so/2013.1/901 2013/11/27
 12 13  0  0  0  0  0  0  0  0999 V2000
    4.7418   15.3930    3.9096 C   0  0  0  0  0  0  0  0  0  0  0  0
    6.0795   17.0300    2.9270 C   0  0  0  0  0  0  0  0  0  0  0  0
    4.0839   14.2423    3.8009 N   0  0  0  0  0  0  0  0  0  0  0  0
    6.7256   17.5621    1.8837 N   0  0  0  0  0  0  0  0  0  0  0  0
    5.3900   15.8854    2.8314 N   0  0  0  0  0  0  0  0  0  0  0  0
    4.7747   16.0350    5.0985 N   0  0  0  0  0  0  0  0  0  0  0  0
    6.8449   19.5969    5.4751 N   0  0  0  0  0  0  0  0  0  0  0  0
    6.1642   19.0520    6.5748 C   0  0  0  0  0  0  0  0  0  0  0  0
    5.4511   17.8386    6.4345 N   0  0  0  0  0  0  0  0  0  0  0  0
    5.4499   17.2025    5.2431 C   0  0  0  0  0  0  0  0  0  0  0  0
    6.1327   17.7264    4.1407 C   0  0  0  0  0  0  0  0  0  0  0  0
    6.8371   18.9251    4.2366 C   0  0  0  0  0  0  0  0  0  0  0  0
  1  3  1  0  0  0  0
  1  5  1  0  0  0  0
  1  6  2  0  0  0  0
  2  5  2  0  0  0  0
  2 11  1  0  0  0  0
  2  4  1  0  0  0  0
  6 10  1  0  0  0  0
  7  8  2  0  0  0  0
  7 12  1  0  0  0  0
  8  9  1  0  0  0  0
  9 10  2  0  0  0  0
 10 11  1  0  0  0  0
 11 12  2  0  0  0  0
M  END
>  <CHROM.1>
5.70928585,17.18078744,4.37001208,2.22667049,-0.96428720,-2.04556827

>  <Name>
ligand

>  <RI>
0

>  <Rbt.Current_Directory>
/home/itssahil/PROJECTS/Mol_Feturizer/New_Systems/rnas/4LX5

>  <Rbt.Executable>
rbdock ($Id: //depot/dev/client3/rdock/2013.1/src/exe/rbdock.cxx#4 $)

>  <Rbt.Library>
libRbt.so (2013.1, Build901 2013/11/27)

>  <Rbt.Parameter_File>
/export/apps/rDock/src/rDock_2013.1_src/data/scripts/dock_solv.prm

>  <Rbt.Receptor>
prm/pocket_docking_5.prm

>  <SCORE>
-15.0186

>  <SCORE.INTER>
-15.0186

>  <SCORE.INTER.CONST>
1

>  <SCORE.INTER.POLAR>
0

>  <SCORE.INTER.ROT>
0

>  <SCORE.INTER.SOLV>
16.0165

>  <SCORE.INTER.VDW>
-18.9513

>  <SCORE.INTER.norm>
-1.25155

>  <SCORE.INTRA>
0

>  <SCORE.INTRA.DIHEDRAL>
0

>  <SCORE.INTRA.DIHEDRAL.0>
0

>  <SCORE.INTRA.POLAR>
0

>  <SCORE.INTRA.POLAR.0>
0

>  <SCORE.INTRA.REPUL>
0

>  <SCORE.INTRA.REPUL.0>
0

>  <SCORE.INTRA.SOLV>
0

>  <SCORE.INTRA.SOLV.lig_0>
-48.1583

>  <SCORE.INTRA.VDW>
0

>  <SCORE.INTRA.VDW.0>
0

>  <SCORE.INTRA.norm>
0

>  <SCORE.RESTR>
0

>  <SCORE.RESTR.CAVITY>
0

>  <SCORE.RESTR.norm>
0

>  <SCORE.SYSTEM>
0

>  <SCORE.SYSTEM.CONST>
0

>  <SCORE.SYSTEM.DIHEDRAL>
0

>  <SCORE.SYSTEM.SOLV>
0

>  <SCORE.SYSTEM.norm>
0

>  <SCORE.heavy>
12

>  <SCORE.norm>
-1.25155

>  <RMSD>
3.031

$$$$
ligand
 OpenBabel11021811503D
libRbt.so/2013.1/901 2013/11/27
 12 13  0  0  0  0  0  0  0  0999 V2000
    4.7527   15.4275    3.9143 C   0  0  0  0  0  0  0  0  0  0  0  0
    6.0841   17.0764    2.9431 C   0  0  0  0  0  0  0  0  0  0  0  0
    4.0965   14.2767    3.7967 N   0  0  0  0  0  0  0  0  0  0  0  0
    6.7259   17.6197    1.9029 N   0  0  0  0  0  0  0  0  0  0  0  0
    5.3964   15.9315    2.8388 N   0  0  0  0  0  0  0  0  0  0  0  0
    4.7882   16.0582    5.1092 N   0  0  0  0  0  0  0  0  0  0  0  0
    6.8531   19.6202    5.5132 N   0  0  0  0  0  0  0  0  0  0  0  0
    6.1770   19.0635    6.6098 C   0  0  0  0  0  0  0  0  0  0  0  0
    5.4656   17.8501    6.4602 N   0  0  0  0  0  0  0  0  0  0  0  0
    5.4617   17.2255    5.2628 C   0  0  0  0  0  0  0  0  0  0  0  0
    6.1400   17.7613    4.1632 C   0  0  0  0  0  0  0  0  0  0  0  0
    6.8425   18.9603    4.2684 C   0  0  0  0  0  0  0  0  0  0  0  0
  1  3  1  0  0  0  0
  1  5  1  0  0  0  0
  1  6  2  0  0  0  0
  2  5  2  0  0  0  0
  2 11  1  0  0  0  0
  2  4  1  0  0  0  0
  6 10  1  0  0  0  0
  7  8  2  0  0  0  0
  7 12  1  0  0  0  0
  8  9  1  0  0  0  0
  9 10  2  0  0  0  0
 10 11  1  0  0  0  0
 11 12  2  0  0  0  0
M  END
>  <CHROM.1>
5.71834031,17.21266216,4.38871541,2.23030204,-0.96740740,-2.03298163

>  <Name>
ligand

>  <RI>
0

>  <Rbt.Current_Directory>
/home/itssahil/PROJECTS/Mol_Feturizer/New_Systems/rnas/4LX5

>  <Rbt.Executable>
rbdock ($Id: //depot/dev/client3/rdock/2013.1/src/exe/rbdock.cxx#4 $)

>  <Rbt.Library>
libRbt.so (2013.1, Build901 2013/11/27)

>  <Rbt.Parameter_File>
/export/apps/rDock/src/rDock_2013.1_src/data/scripts/dock_solv.prm

>  <Rbt.Receptor>
prm/pocket_docking_6.prm

>  <SCORE>
-15.0714

>  <SCORE.INTER>
-15.0714

>  <SCORE.INTER.CONST>
1

>  <SCORE.INTER.POLAR>
0

>  <SCORE.INTER.ROT>
0

>  <SCORE.INTER.SOLV>
16.0393

>  <SCORE.INTER.VDW>
-18.994

>  <SCORE.INTER.norm>
-1.25595

>  <SCORE.INTRA>
0

>  <SCORE.INTRA.DIHEDRAL>
0

>  <SCORE.INTRA.DIHEDRAL.0>
0

>  <SCORE.INTRA.POLAR>
0

>  <SCORE.INTRA.POLAR.0>
0

>  <SCORE.INTRA.REPUL>
0

>  <SCORE.INTRA.REPUL.0>
0

>  <SCORE.INTRA.SOLV>
0

>  <SCORE.INTRA.SOLV.lig_0>
-48.1583

>  <SCORE.INTRA.VDW>
0

>  <SCORE.INTRA.VDW.0>
0

>  <SCORE.INTRA.norm>
0

>  <SCORE.RESTR>
0

>  <SCORE.RESTR.CAVITY>
0

>  <SCORE.RESTR.norm>
0

>  <SCORE.SYSTEM>
0

>  <SCORE.SYSTEM.CONST>
0

>  <SCORE.SYSTEM.DIHEDRAL>
0

>  <SCORE.SYSTEM.SOLV>
0

>  <SCORE.SYSTEM.norm>
0

>  <SCORE.heavy>
12

>  <SCORE.norm>
-1.25595

>  <RMSD>
3.031

$$$$
ligand
 OpenBabel11021811503D
libRbt.so/2013.1/901 2013/11/27
 12 13  0  0  0  0  0  0  0  0999 V2000
    4.7577   15.4210    3.9071 C   0  0  0  0  0  0  0  0  0  0  0  0
    6.1022   17.0725    2.9586 C   0  0  0  0  0  0  0  0  0  0  0  0
    4.1063   14.2685    3.7785 N   0  0  0  0  0  0  0  0  0  0  0  0
    6.7609   17.6168    1.9296 N   0  0  0  0  0  0  0  0  0  0  0  0
    5.4191   15.9259    2.8427 N   0  0  0  0  0  0  0  0  0  0  0  0
    4.7707   16.0523    5.1020 N   0  0  0  0  0  0  0  0  0  0  0  0
    6.8197   19.6193    5.5405 N   0  0  0  0  0  0  0  0  0  0  0  0
    6.1258   19.0616    6.6253 C   0  0  0  0  0  0  0  0  0  0  0  0
    5.4200   17.8465    6.4638 N   0  0  0  0  0  0  0  0  0  0  0  0
    5.4386   17.2213    5.2669 C   0  0  0  0  0  0  0  0  0  0  0  0
    6.1349   17.7581    4.1792 C   0  0  0  0  0  0  0  0  0  0  0  0
    6.8327   18.9588    4.2960 C   0  0  0  0  0  0  0  0  0  0  0  0
  1  3  1  0  0  0  0
  1  5  1  0  0  0  0
  1  6  2  0  0  0  0
  2  5  2  0  0  0  0
  2 11  1  0  0  0  0
  2  4  1  0  0  0  0
  6 10  1  0  0  0  0
  7  8  2  0  0  0  0
  7 12  1  0  0  0  0
  8  9  1  0  0  0  0
  9 10  2  0  0  0  0
 10 11  1  0  0  0  0
 11 12  2  0  0  0  0
M  END
>  <CHROM.1>
5.71064727,17.20859077,4.39743745,2.20088867,-0.96142772,-2.05766689

>  <Name>
ligand

>  <RI>
0

>  <Rbt.Current_Directory>
/home/itssahil/PROJECTS/Mol_Feturizer/New_Systems/rnas/4LX5

>  <Rbt.Executable>
rbdock ($Id: //depot/dev/client3/rdock/2013.1/src/exe/rbdock.cxx#4 $)

>  <Rbt.Library>
libRbt.so (2013.1, Build901 2013/11/27)

>  <Rbt.Parameter_File>
/export/apps/rDock/src/rDock_2013.1_src/data/scripts/dock_solv.prm

>  <Rbt.Receptor>
prm/pocket_docking_7.prm

>  <SCORE>
-15.0047

>  <SCORE.INTER>
-15.0047

>  <SCORE.INTER.CONST>
1

>  <SCORE.INTER.POLAR>
0

>  <SCORE.INTER.ROT>
0

>  <SCORE.INTER.SOLV>
16.0935

>  <SCORE.INTER.VDW>
-18.9676

>  <SCORE.INTER.norm>
-1.25039

>  <SCORE.INTRA>
0

>  <SCORE.INTRA.DIHEDRAL>
0

>  <SCORE.INTRA.DIHEDRAL.0>
0

>  <SCORE.INTRA.POLAR>
0

>  <SCORE.INTRA.POLAR.0>
0

>  <SCORE.INTRA.REPUL>
0

>  <SCORE.INTRA.REPUL.0>
0

>  <SCORE.INTRA.SOLV>
0

>  <SCORE.INTRA.SOLV.lig_0>
-48.1583

>  <SCORE.INTRA.VDW>
0

>  <SCORE.INTRA.VDW.0>
0

>  <SCORE.INTRA.norm>
0

>  <SCORE.RESTR>
0

>  <SCORE.RESTR.CAVITY>
0

>  <SCORE.RESTR.norm>
0

>  <SCORE.SYSTEM>
0

>  <SCORE.SYSTEM.CONST>
0

>  <SCORE.SYSTEM.DIHEDRAL>
0

>  <SCORE.SYSTEM.SOLV>
0

>  <SCORE.SYSTEM.norm>
0

>  <SCORE.heavy>
12

>  <SCORE.norm>
-1.25039

>  <RMSD>
3.031

$$$$
ligand
 OpenBabel11021811503D
libRbt.so/2013.1/901 2013/11/27
 12 13  0  0  0  0  0  0  0  0999 V2000
    4.7512   15.4281    3.9107 C   0  0  0  0  0  0  0  0  0  0  0  0
    6.0874   17.0778    2.9475 C   0  0  0  0  0  0  0  0  0  0  0  0
    4.0946   14.2780    3.7885 N   0  0  0  0  0  0  0  0  0  0  0  0
    6.7334   17.6226    1.9107 N   0  0  0  0  0  0  0  0  0  0  0  0
    5.3992   15.9336    2.8385 N   0  0  0  0  0  0  0  0  0  0  0  0
    4.7826   16.0566    5.1068 N   0  0  0  0  0  0  0  0  0  0  0  0
    6.8484   19.6165    5.5250 N   0  0  0  0  0  0  0  0  0  0  0  0
    6.1679   19.0582    6.6181 C   0  0  0  0  0  0  0  0  0  0  0  0
    5.4562   17.8457    6.4636 N   0  0  0  0  0  0  0  0  0  0  0  0
    5.4564   17.2232    5.2651 C   0  0  0  0  0  0  0  0  0  0  0  0
    6.1391   17.7605    4.1690 C   0  0  0  0  0  0  0  0  0  0  0  0
    6.8421   18.9588    4.2790 C   0  0  0  0  0  0  0  0  0  0  0  0
  1  3  1  0  0  0  0
  1  5  1  0  0  0  0
  1  6  2  0  0  0  0
  2  5  2  0  0  0  0
  2 11  1  0  0  0  0
  2  4  1  0  0  0  0
  6 10  1  0  0  0  0
  7  8  2  0  0  0  0
  7 12  1  0  0  0  0
  8  9  1  0  0  0  0
  9 10  2  0  0  0  0
 10 11  1  0  0  0  0
 11 12  2  0  0  0  0
M  END
>  <CHROM.1>
5.71625396,17.21174033,4.39192015,2.22494103,-0.96511377,-2.03559342

>  <Name>
ligand

>  <RI>
0

>  <Rbt.Current_Directory>
/home/itssahil/PROJECTS/Mol_Feturizer/New_Systems/rnas/4LX5

>  <Rbt.Executable>
rbdock ($Id: //depot/dev/client3/rdock/2013.1/src/exe/rbdock.cxx#4 $)

>  <Rbt.Library>
libRbt.so (2013.1, Build901 2013/11/27)

>  <Rbt.Parameter_File>
/export/apps/rDock/src/rDock_2013.1_src/data/scripts/dock_solv.prm

>  <Rbt.Receptor>
prm/pocket_docking_7.prm

>  <SCORE>
-15.0698

>  <SCORE.INTER>
-15.0698

>  <SCORE.INTER.CONST>
1

>  <SCORE.INTER.POLAR>
0

>  <SCORE.INTER.ROT>
0

>  <SCORE.INTER.SOLV>
16.024

>  <SCORE.INTER.VDW>
-18.9878

>  <SCORE.INTER.norm>
-1.25582

>  <SCORE.INTRA>
0

>  <SCORE.INTRA.DIHEDRAL>
0

>  <SCORE.INTRA.DIHEDRAL.0>
0

>  <SCORE.INTRA.POLAR>
0

>  <SCORE.INTRA.POLAR.0>
0

>  <SCORE.INTRA.REPUL>
0

>  <SCORE.INTRA.REPUL.0>
0

>  <SCORE.INTRA.SOLV>
0

>  <SCORE.INTRA.SOLV.lig_0>
-48.1583

>  <SCORE.INTRA.VDW>
0

>  <SCORE.INTRA.VDW.0>
0

>  <SCORE.INTRA.norm>
0

>  <SCORE.RESTR>
0

>  <SCORE.RESTR.CAVITY>
0

>  <SCORE.RESTR.norm>
0

>  <SCORE.SYSTEM>
0

>  <SCORE.SYSTEM.CONST>
0

>  <SCORE.SYSTEM.DIHEDRAL>
0

>  <SCORE.SYSTEM.SOLV>
0

>  <SCORE.SYSTEM.norm>
0

>  <SCORE.heavy>
12

>  <SCORE.norm>
-1.25582

>  <RMSD>
3.031

$$$$
ligand
 OpenBabel11021811503D
libRbt.so/2013.1/901 2013/11/27
 12 13  0  0  0  0  0  0  0  0999 V2000
    4.7423   15.3939    3.9101 C   0  0  0  0  0  0  0  0  0  0  0  0
    6.0775   17.0373    2.9346 C   0  0  0  0  0  0  0  0  0  0  0  0
    4.0842   14.2438    3.7957 N   0  0  0  0  0  0  0  0  0  0  0  0
    6.7210   17.5760    1.8931 N   0  0  0  0  0  0  0  0  0  0  0  0
    5.3878   15.8932    2.8334 N   0  0  0  0  0  0  0  0  0  0  0  0
    4.7780   16.0284    5.1029 N   0  0  0  0  0  0  0  0  0  0  0  0
    6.8489   19.5880    5.4970 N   0  0  0  0  0  0  0  0  0  0  0  0
    6.1710   19.0361    6.5949 C   0  0  0  0  0  0  0  0  0  0  0  0
    5.4576   17.8235    6.4486 N   0  0  0  0  0  0  0  0  0  0  0  0
    5.4535   17.1950    5.2533 C   0  0  0  0  0  0  0  0  0  0  0  0
    6.1335   17.7260    4.1525 C   0  0  0  0  0  0  0  0  0  0  0  0
    6.8381   18.9241    4.2543 C   0  0  0  0  0  0  0  0  0  0  0  0
  1  3  1  0  0  0  0
  1  5  1  0  0  0  0
  1  6  2  0  0  0  0
  2  5  2  0  0  0  0
  2 11  1  0  0  0  0
  2  4  1  0  0  0  0
  6 10  1  0  0  0  0
  7  8  2  0  0  0  0
  7 12  1  0  0  0  0
  8  9  1  0  0  0  0
  9 10  2  0  0  0  0
 10 11  1  0  0  0  0
 11 12  2  0  0  0  0
M  END
>  <CHROM.1>
5.71077041,17.17885786,4.37941807,2.23044662,-0.96546871,-2.03612194

>  <Name>
ligand

>  <RI>
0

>  <Rbt.Current_Directory>
/home/itssahil/PROJECTS/Mol_Feturizer/New_Systems/rnas/4LX5

>  <Rbt.Executable>
rbdock ($Id: //depot/dev/client3/rdock/2013.1/src/exe/rbdock.cxx#4 $)

>  <Rbt.Library>
libRbt.so (2013.1, Build901 2013/11/27)

>  <Rbt.Parameter_File>
/export/apps/rDock/src/rDock_2013.1_src/data/scripts/dock_solv.prm

>  <Rbt.Receptor>
prm/pocket_docking_5.prm

>  <SCORE>
-15.0188

>  <SCORE.INTER>
-15.0188

>  <SCORE.INTER.CONST>
1

>  <SCORE.INTER.POLAR>
0

>  <SCORE.INTER.ROT>
0

>  <SCORE.INTER.SOLV>
15.9926

>  <SCORE.INTER.VDW>
-18.9434

>  <SCORE.INTER.norm>
-1.25157

>  <SCORE.INTRA>
0

>  <SCORE.INTRA.DIHEDRAL>
0

>  <SCORE.INTRA.DIHEDRAL.0>
0

>  <SCORE.INTRA.POLAR>
0

>  <SCORE.INTRA.POLAR.0>
0

>  <SCORE.INTRA.REPUL>
0

>  <SCORE.INTRA.REPUL.0>
0

>  <SCORE.INTRA.SOLV>
0

>  <SCORE.INTRA.SOLV.lig_0>
-48.1583

>  <SCORE.INTRA.VDW>
0

>  <SCORE.INTRA.VDW.0>
0

>  <SCORE.INTRA.norm>
0

>  <SCORE.RESTR>
0

>  <SCORE.RESTR.CAVITY>
0

>  <SCORE.RESTR.norm>
0

>  <SCORE.SYSTEM>
0

>  <SCORE.SYSTEM.CONST>
0

>  <SCORE.SYSTEM.DIHEDRAL>
0

>  <SCORE.SYSTEM.SOLV>
0

>  <SCORE.SYSTEM.norm>
0

>  <SCORE.heavy>
12

>  <SCORE.norm>
-1.25157

>  <RMSD>
3.032

$$$$
ligand
 OpenBabel11021811503D
libRbt.so/2013.1/901 2013/11/27
 12 13  0  0  0  0  0  0  0  0999 V2000
    4.7507   15.4168    3.9084 C   0  0  0  0  0  0  0  0  0  0  0  0
    6.0779   17.0793    2.9547 C   0  0  0  0  0  0  0  0  0  0  0  0
    4.1003   14.2639    3.7795 N   0  0  0  0  0  0  0  0  0  0  0  0
    6.7207   17.6336    1.9210 N   0  0  0  0  0  0  0  0  0  0  0  0
    5.3958   15.9321    2.8390 N   0  0  0  0  0  0  0  0  0  0  0  0
    4.7791   16.0383    5.1082 N   0  0  0  0  0  0  0  0  0  0  0  0
    6.8259   19.6066    5.5471 N   0  0  0  0  0  0  0  0  0  0  0  0
    6.1486   19.0382    6.6370 C   0  0  0  0  0  0  0  0  0  0  0  0
    5.4435   17.8228    6.4754 N   0  0  0  0  0  0  0  0  0  0  0  0
    5.4467   17.2075    5.2732 C   0  0  0  0  0  0  0  0  0  0  0  0
    6.1262   17.7549    4.1803 C   0  0  0  0  0  0  0  0  0  0  0  0
    6.8228   18.9563    4.2972 C   0  0  0  0  0  0  0  0  0  0  0  0
  1  3  1  0  0  0  0
  1  5  1  0  0  0  0
  1  6  2  0  0  0  0
  2  5  2  0  0  0  0
  2 11  1  0  0  0  0
  2  4  1  0  0  0  0
  6 10  1  0  0  0  0
  7  8  2  0  0  0  0
  7 12  1  0  0  0  0
  8  9  1  0  0  0  0
  9 10  2  0  0  0  0
 10 11  1  0  0  0  0
 11 12  2  0  0  0  0
M  END
>  <CHROM.1>
5.70639284,17.20261076,4.39997308,2.22106686,-0.96998753,-2.03283441

>  <Name>
ligand

>  <RI>
0

>  <Rbt.Current_Directory>
/home/itssahil/PROJECTS/Mol_Feturizer/New_Systems/rnas/4LX5

>  <Rbt.Executable>
rbdock ($Id: //depot/dev/client3/rdock/2013.1/src/exe/rbdock.cxx#4 $)

>  <Rbt.Library>
libRbt.so (2013.1, Build901 2013/11/27)

>  <Rbt.Parameter_File>
/export/apps/rDock/src/rDock_2013.1_src/data/scripts/dock_solv.prm

>  <Rbt.Receptor>
prm/pocket_docking_5.prm

>  <SCORE>
-15.0438

>  <SCORE.INTER>
-15.0438

>  <SCORE.INTER.CONST>
1

>  <SCORE.INTER.POLAR>
0

>  <SCORE.INTER.ROT>
0

>  <SCORE.INTER.SOLV>
16.0204

>  <SCORE.INTER.VDW>
-18.9693

>  <SCORE.INTER.norm>
-1.25365

>  <SCORE.INTRA>
0

>  <SCORE.INTRA.DIHEDRAL>
0

>  <SCORE.INTRA.DIHEDRAL.0>
0

>  <SCORE.INTRA.POLAR>
0

>  <SCORE.INTRA.POLAR.0>
0

>  <SCORE.INTRA.REPUL>
0

>  <SCORE.INTRA.REPUL.0>
0

>  <SCORE.INTRA.SOLV>
0

>  <SCORE.INTRA.SOLV.lig_0>
-48.1583

>  <SCORE.INTRA.VDW>
0

>  <SCORE.INTRA.VDW.0>
0

>  <SCORE.INTRA.norm>
0

>  <SCORE.RESTR>
0

>  <SCORE.RESTR.CAVITY>
0

>  <SCORE.RESTR.norm>
0

>  <SCORE.SYSTEM>
0

>  <SCORE.SYSTEM.CONST>
0

>  <SCORE.SYSTEM.DIHEDRAL>
0

>  <SCORE.SYSTEM.SOLV>
0

>  <SCORE.SYSTEM.norm>
0

>  <SCORE.heavy>
12

>  <SCORE.norm>
-1.25365

>  <RMSD>
3.032

$$$$
ligand
 OpenBabel11021811503D
libRbt.so/2013.1/901 2013/11/27
 12 13  0  0  0  0  0  0  0  0999 V2000
    4.7412   15.3682    3.9084 C   0  0  0  0  0  0  0  0  0  0  0  0
    6.0705   17.0096    2.9217 C   0  0  0  0  0  0  0  0  0  0  0  0
    4.0869   14.2152    3.8017 N   0  0  0  0  0  0  0  0  0  0  0  0
    6.7118   17.5438    1.8766 N   0  0  0  0  0  0  0  0  0  0  0  0
    5.3846   15.8627    2.8282 N   0  0  0  0  0  0  0  0  0  0  0  0
    4.7752   16.0105    5.0971 N   0  0  0  0  0  0  0  0  0  0  0  0
    6.8341   19.5796    5.4673 N   0  0  0  0  0  0  0  0  0  0  0  0
    6.1585   19.0325    6.5689 C   0  0  0  0  0  0  0  0  0  0  0  0
    5.4491   17.8166    6.4308 N   0  0  0  0  0  0  0  0  0  0  0  0
    5.4468   17.1803    5.2396 C   0  0  0  0  0  0  0  0  0  0  0  0
    6.1246   17.7065    4.1351 C   0  0  0  0  0  0  0  0  0  0  0  0
    6.8252   18.9076    4.2289 C   0  0  0  0  0  0  0  0  0  0  0  0
  1  3  1  0  0  0  0
  1  5  1  0  0  0  0
  1  6  2  0  0  0  0
  2  5  2  0  0  0  0
  2 11  1  0  0  0  0
  2  4  1  0  0  0  0
  6 10  1  0  0  0  0
  7  8  2  0  0  0  0
  7 12  1  0  0  0  0
  8  9  1  0  0  0  0
  9 10  2  0  0  0  0
 10 11  1  0  0  0  0
 11 12  2  0  0  0  0
M  END
>  <CHROM.1>
5.70378185,17.15938703,4.36576137,2.22831835,-0.96863345,-2.04436057

>  <Name>
ligand

>  <RI>
0

>  <Rbt.Current_Directory>
/home/itssahil/PROJECTS/Mol_Feturizer/New_Systems/rnas/4LX5

>  <Rbt.Executable>
rbdock ($Id: //depot/dev/client3/rdock/2013.1/src/exe/rbdock.cxx#4 $)

>  <Rbt.Library>
libRbt.so (2013.1, Build901 2013/11/27)

>  <Rbt.Parameter_File>
/export/apps/rDock/src/rDock_2013.1_src/data/scripts/dock_solv.prm

>  <Rbt.Receptor>
prm/pocket_docking_6.prm

>  <SCORE>
-15.007

>  <SCORE.INTER>
-15.007

>  <SCORE.INTER.CONST>
1

>  <SCORE.INTER.POLAR>
0

>  <SCORE.INTER.ROT>
0

>  <SCORE.INTER.SOLV>
16.0234

>  <SCORE.INTER.VDW>
-18.9458

>  <SCORE.INTER.norm>
-1.25058

>  <SCORE.INTRA>
0

>  <SCORE.INTRA.DIHEDRAL>
0

>  <SCORE.INTRA.DIHEDRAL.0>
0

>  <SCORE.INTRA.POLAR>
0

>  <SCORE.INTRA.POLAR.0>
0

>  <SCORE.INTRA.REPUL>
0

>  <SCORE.INTRA.REPUL.0>
0

>  <SCORE.INTRA.SOLV>
0

>  <SCORE.INTRA.SOLV.lig_0>
-48.1583

>  <SCORE.INTRA.VDW>
0

>  <SCORE.INTRA.VDW.0>
0

>  <SCORE.INTRA.norm>
0

>  <SCORE.RESTR>
0

>  <SCORE.RESTR.CAVITY>
0

>  <SCORE.RESTR.norm>
0

>  <SCORE.SYSTEM>
0

>  <SCORE.SYSTEM.CONST>
0

>  <SCORE.SYSTEM.DIHEDRAL>
0

>  <SCORE.SYSTEM.SOLV>
0

>  <SCORE.SYSTEM.norm>
0

>  <SCORE.heavy>
12

>  <SCORE.norm>
-1.25058

>  <RMSD>
3.032

$$$$
ligand
 OpenBabel11021811503D
libRbt.so/2013.1/901 2013/11/27
 12 13  0  0  0  0  0  0  0  0999 V2000
    4.7443   15.4269    3.9059 C   0  0  0  0  0  0  0  0  0  0  0  0
    6.0854   17.0794    2.9542 C   0  0  0  0  0  0  0  0  0  0  0  0
    4.0893   14.2765    3.7774 N   0  0  0  0  0  0  0  0  0  0  0  0
    6.7376   17.6265    1.9226 N   0  0  0  0  0  0  0  0  0  0  0  0
    5.3988   15.9349    2.8387 N   0  0  0  0  0  0  0  0  0  0  0  0
    4.7677   16.0531    5.1034 N   0  0  0  0  0  0  0  0  0  0  0  0
    6.8282   19.6136    5.5414 N   0  0  0  0  0  0  0  0  0  0  0  0
    6.1412   19.0529    6.6290 C   0  0  0  0  0  0  0  0  0  0  0  0
    5.4314   17.8401    6.4678 N   0  0  0  0  0  0  0  0  0  0  0  0
    5.4396   17.2199    5.2681 C   0  0  0  0  0  0  0  0  0  0  0  0
    6.1289   17.7597    4.1774 C   0  0  0  0  0  0  0  0  0  0  0  0
    6.8303   18.9583    4.2941 C   0  0  0  0  0  0  0  0  0  0  0  0
  1  3  1  0  0  0  0
  1  5  1  0  0  0  0
  1  6  2  0  0  0  0
  2  5  2  0  0  0  0
  2 11  1  0  0  0  0
  2  4  1  0  0  0  0
  6 10  1  0  0  0  0
  7  8  2  0  0  0  0
  7 12  1  0  0  0  0
  8  9  1  0  0  0  0
  9 10  2  0  0  0  0
 10 11  1  0  0  0  0
 11 12  2  0  0  0  0
M  END
>  <CHROM.1>
5.70501978,17.21025941,4.39657726,2.21445685,-0.96288110,-2.04231516

>  <Name>
ligand

>  <RI>
0

>  <Rbt.Current_Directory>
/home/itssahil/PROJECTS/Mol_Feturizer/New_Systems/rnas/4LX5

>  <Rbt.Executable>
rbdock ($Id: //depot/dev/client3/rdock/2013.1/src/exe/rbdock.cxx#4 $)

>  <Rbt.Library>
libRbt.so (2013.1, Build901 2013/11/27)

>  <Rbt.Parameter_File>
/export/apps/rDock/src/rDock_2013.1_src/data/scripts/dock_solv.prm

>  <Rbt.Receptor>
prm/pocket_docking_6.prm

>  <SCORE>
-15.1045

>  <SCORE.INTER>
-15.1045

>  <SCORE.INTER.CONST>
1

>  <SCORE.INTER.POLAR>
0

>  <SCORE.INTER.ROT>
0

>  <SCORE.INTER.SOLV>
15.9843

>  <SCORE.INTER.VDW>
-18.9977

>  <SCORE.INTER.norm>
-1.25871

>  <SCORE.INTRA>
0

>  <SCORE.INTRA.DIHEDRAL>
0

>  <SCORE.INTRA.DIHEDRAL.0>
0

>  <SCORE.INTRA.POLAR>
0

>  <SCORE.INTRA.POLAR.0>
0

>  <SCORE.INTRA.REPUL>
0

>  <SCORE.INTRA.REPUL.0>
0

>  <SCORE.INTRA.SOLV>
0

>  <SCORE.INTRA.SOLV.lig_0>
-48.1583

>  <SCORE.INTRA.VDW>
0

>  <SCORE.INTRA.VDW.0>
0

>  <SCORE.INTRA.norm>
0

>  <SCORE.RESTR>
0

>  <SCORE.RESTR.CAVITY>
0

>  <SCORE.RESTR.norm>
0

>  <SCORE.SYSTEM>
0

>  <SCORE.SYSTEM.CONST>
0

>  <SCORE.SYSTEM.DIHEDRAL>
0

>  <SCORE.SYSTEM.SOLV>
0

>  <SCORE.SYSTEM.norm>
0

>  <SCORE.heavy>
12

>  <SCORE.norm>
-1.25871

>  <RMSD>
3.032

$$$$
ligand
 OpenBabel11021811503D
libRbt.so/2013.1/901 2013/11/27
 12 13  0  0  0  0  0  0  0  0999 V2000
    4.7395   15.3955    3.9057 C   0  0  0  0  0  0  0  0  0  0  0  0
    6.0819   17.0400    2.9422 C   0  0  0  0  0  0  0  0  0  0  0  0
    4.0821   14.2457    3.7849 N   0  0  0  0  0  0  0  0  0  0  0  0
    6.7332   17.5801    1.9063 N   0  0  0  0  0  0  0  0  0  0  0  0
    5.3929   15.8962    2.8345 N   0  0  0  0  0  0  0  0  0  0  0  0
    4.7664   16.0284    5.0996 N   0  0  0  0  0  0  0  0  0  0  0  0
    6.8345   19.5874    5.5137 N   0  0  0  0  0  0  0  0  0  0  0  0
    6.1485   19.0340    6.6058 C   0  0  0  0  0  0  0  0  0  0  0  0
    5.4361   17.8217    6.4527 N   0  0  0  0  0  0  0  0  0  0  0  0
    5.4408   17.1948    5.2565 C   0  0  0  0  0  0  0  0  0  0  0  0
    6.1290   17.7271    4.1615 C   0  0  0  0  0  0  0  0  0  0  0  0
    6.8329   18.9251    4.2701 C   0  0  0  0  0  0  0  0  0  0  0  0
  1  3  1  0  0  0  0
  1  5  1  0  0  0  0
  1  6  2  0  0  0  0
  2  5  2  0  0  0  0
  2 11  1  0  0  0  0
  2  4  1  0  0  0  0
  6 10  1  0  0  0  0
  7  8  2  0  0  0  0
  7 12  1  0  0  0  0
  8  9  1  0  0  0  0
  9 10  2  0  0  0  0
 10 11  1  0  0  0  0
 11 12  2  0  0  0  0
M  END
>  <CHROM.1>
5.70455643,17.17975514,4.38453209,2.21894783,-0.96205134,-2.04424890

>  <Name>
ligand

>  <RI>
0

>  <Rbt.Current_Directory>
/home/itssahil/PROJECTS/Mol_Feturizer/New_Systems/rnas/4LX5

>  <Rbt.Executable>
rbdock ($Id: //depot/dev/client3/rdock/2013.1/src/exe/rbdock.cxx#4 $)

>  <Rbt.Library>
libRbt.so (2013.1, Build901 2013/11/27)

>  <Rbt.Parameter_File>
/export/apps/rDock/src/rDock_2013.1_src/data/scripts/dock_solv.prm

>  <Rbt.Receptor>
prm/pocket_docking_7.prm

>  <SCORE>
-15.014

>  <SCORE.INTER>
-15.014

>  <SCORE.INTER.CONST>
1

>  <SCORE.INTER.POLAR>
0

>  <SCORE.INTER.ROT>
0

>  <SCORE.INTER.SOLV>
15.9777

>  <SCORE.INTER.VDW>
-18.9352

>  <SCORE.INTER.norm>
-1.25117

>  <SCORE.INTRA>
0

>  <SCORE.INTRA.DIHEDRAL>
0

>  <SCORE.INTRA.DIHEDRAL.0>
0

>  <SCORE.INTRA.POLAR>
0

>  <SCORE.INTRA.POLAR.0>
0

>  <SCORE.INTRA.REPUL>
0

>  <SCORE.INTRA.REPUL.0>
0

>  <SCORE.INTRA.SOLV>
0

>  <SCORE.INTRA.SOLV.lig_0>
-48.1583

>  <SCORE.INTRA.VDW>
0

>  <SCORE.INTRA.VDW.0>
0

>  <SCORE.INTRA.norm>
0

>  <SCORE.RESTR>
0

>  <SCORE.RESTR.CAVITY>
0

>  <SCORE.RESTR.norm>
0

>  <SCORE.SYSTEM>
0

>  <SCORE.SYSTEM.CONST>
0

>  <SCORE.SYSTEM.DIHEDRAL>
0

>  <SCORE.SYSTEM.SOLV>
0

>  <SCORE.SYSTEM.norm>
0

>  <SCORE.heavy>
12

>  <SCORE.norm>
-1.25117

>  <RMSD>
3.032

$$$$
ligand
 OpenBabel11021811503D
libRbt.so/2013.1/901 2013/11/27
 12 13  0  0  0  0  0  0  0  0999 V2000
    4.7613   15.4352    3.9226 C   0  0  0  0  0  0  0  0  0  0  0  0
    6.0828   17.0920    2.9511 C   0  0  0  0  0  0  0  0  0  0  0  0
    4.1145   14.2790    3.8060 N   0  0  0  0  0  0  0  0  0  0  0  0
    6.7235   17.6375    1.9114 N   0  0  0  0  0  0  0  0  0  0  0  0
    5.4044   15.9414    2.8477 N   0  0  0  0  0  0  0  0  0  0  0  0
    4.7880   16.0694    5.1158 N   0  0  0  0  0  0  0  0  0  0  0  0
    6.8235   19.6486    5.5167 N   0  0  0  0  0  0  0  0  0  0  0  0
    6.1484   19.0895    6.6127 C   0  0  0  0  0  0  0  0  0  0  0  0
    5.4471   17.8702    6.4641 N   0  0  0  0  0  0  0  0  0  0  0  0
    5.4519   17.2423    5.2684 C   0  0  0  0  0  0  0  0  0  0  0  0
    6.1293   17.7805    4.1695 C   0  0  0  0  0  0  0  0  0  0  0  0
    6.8221   18.9853    4.2736 C   0  0  0  0  0  0  0  0  0  0  0  0
  1  3  1  0  0  0  0
  1  5  1  0  0  0  0
  1  6  2  0  0  0  0
  2  5  2  0  0  0  0
  2 11  1  0  0  0  0
  2  4  1  0  0  0  0
  6 10  1  0  0  0  0
  7  8  2  0  0  0  0
  7 12  1  0  0  0  0
  8  9  1  0  0  0  0
  9 10  2  0  0  0  0
 10 11  1  0  0  0  0
 11 12  2  0  0  0  0
M  END
>  <CHROM.1>
5.71133709,17.22919173,4.39514143,2.21903790,-0.97300378,-2.04496685

>  <Name>
ligand

>  <RI>
0

>  <Rbt.Current_Directory>
/home/itssahil/PROJECTS/Mol_Feturizer/New_Systems/rnas/4LX5

>  <Rbt.Executable>
rbdock ($Id: //depot/dev/client3/rdock/2013.1/src/exe/rbdock.cxx#4 $)

>  <Rbt.Library>
libRbt.so (2013.1, Build901 2013/11/27)

>  <Rbt.Parameter_File>
/export/apps/rDock/src/rDock_2013.1_src/data/scripts/dock_solv.prm

>  <Rbt.Receptor>
prm/pocket_docking_3.prm

>  <SCORE>
-15.0461

>  <SCORE.INTER>
-15.0461

>  <SCORE.INTER.CONST>
1

>  <SCORE.INTER.POLAR>
0

>  <SCORE.INTER.ROT>
0

>  <SCORE.INTER.SOLV>
16.1302

>  <SCORE.INTER.VDW>
-19.0075

>  <SCORE.INTER.norm>
-1.25385

>  <SCORE.INTRA>
0

>  <SCORE.INTRA.DIHEDRAL>
0

>  <SCORE.INTRA.DIHEDRAL.0>
0

>  <SCORE.INTRA.POLAR>
0

>  <SCORE.INTRA.POLAR.0>
0

>  <SCORE.INTRA.REPUL>
0

>  <SCORE.INTRA.REPUL.0>
0

>  <SCORE.INTRA.SOLV>
0

>  <SCORE.INTRA.SOLV.lig_0>
-48.1583

>  <SCORE.INTRA.VDW>
0

>  <SCORE.INTRA.VDW.0>
0

>  <SCORE.INTRA.norm>
0

>  <SCORE.RESTR>
0

>  <SCORE.RESTR.CAVITY>
0

>  <SCORE.RESTR.norm>
0

>  <SCORE.SYSTEM>
0

>  <SCORE.SYSTEM.CONST>
0

>  <SCORE.SYSTEM.DIHEDRAL>
0

>  <SCORE.SYSTEM.SOLV>
0

>  <SCORE.SYSTEM.norm>
0

>  <SCORE.heavy>
12

>  <SCORE.norm>
-1.25385

>  <RMSD>
3.033

$$$$
ligand
 OpenBabel11021811503D
libRbt.so/2013.1/901 2013/11/27
 12 13  0  0  0  0  0  0  0  0999 V2000
    4.7530   15.4330    3.9261 C   0  0  0  0  0  0  0  0  0  0  0  0
    6.0827   17.0776    2.9452 C   0  0  0  0  0  0  0  0  0  0  0  0
    4.0931   14.2838    3.8135 N   0  0  0  0  0  0  0  0  0  0  0  0
    6.7193   17.6184    1.9006 N   0  0  0  0  0  0  0  0  0  0  0  0
    5.3913   15.9344    2.8461 N   0  0  0  0  0  0  0  0  0  0  0  0
    4.7977   16.0644    5.1202 N   0  0  0  0  0  0  0  0  0  0  0  0
    6.8744   19.6213    5.5084 N   0  0  0  0  0  0  0  0  0  0  0  0
    6.2038   19.0672    6.6097 C   0  0  0  0  0  0  0  0  0  0  0  0
    5.4883   17.8556    6.4655 N   0  0  0  0  0  0  0  0  0  0  0  0
    5.4752   17.2301    5.2687 C   0  0  0  0  0  0  0  0  0  0  0  0
    6.1479   17.7633    4.1644 C   0  0  0  0  0  0  0  0  0  0  0  0
    6.8543   18.9605    4.2642 C   0  0  0  0  0  0  0  0  0  0  0  0
  1  3  1  0  0  0  0
  1  5  1  0  0  0  0
  1  6  2  0  0  0  0
  2  5  2  0  0  0  0
  2 11  1  0  0  0  0
  2  4  1  0  0  0  0
  6 10  1  0  0  0  0
  7  8  2  0  0  0  0
  7 12  1  0  0  0  0
  8  9  1  0  0  0  0
  9 10  2  0  0  0  0
 10 11  1  0  0  0  0
 11 12  2  0  0  0  0
M  END
>  <CHROM.1>
5.72631423,17.21592358,4.39298324,2.24226972,-0.96783142,-2.02390570

>  <Name>
ligand

>  <RI>
0

>  <Rbt.Current_Directory>
/home/itssahil/PROJECTS/Mol_Feturizer/New_Systems/rnas/4LX5

>  <Rbt.Executable>
rbdock ($Id: //depot/dev/client3/rdock/2013.1/src/exe/rbdock.cxx#4 $)

>  <Rbt.Library>
libRbt.so (2013.1, Build901 2013/11/27)

>  <Rbt.Parameter_File>
/export/apps/rDock/src/rDock_2013.1_src/data/scripts/dock_solv.prm

>  <Rbt.Receptor>
prm/pocket_docking_7.prm

>  <SCORE>
-15.0553

>  <SCORE.INTER>
-15.0553

>  <SCORE.INTER.CONST>
1

>  <SCORE.INTER.POLAR>
0

>  <SCORE.INTER.ROT>
0

>  <SCORE.INTER.SOLV>
16.0267

>  <SCORE.INTER.VDW>
-18.9791

>  <SCORE.INTER.norm>
-1.25461

>  <SCORE.INTRA>
0

>  <SCORE.INTRA.DIHEDRAL>
0

>  <SCORE.INTRA.DIHEDRAL.0>
0

>  <SCORE.INTRA.POLAR>
0

>  <SCORE.INTRA.POLAR.0>
0

>  <SCORE.INTRA.REPUL>
0

>  <SCORE.INTRA.REPUL.0>
0

>  <SCORE.INTRA.SOLV>
0

>  <SCORE.INTRA.SOLV.lig_0>
-48.1583

>  <SCORE.INTRA.VDW>
0

>  <SCORE.INTRA.VDW.0>
0

>  <SCORE.INTRA.norm>
0

>  <SCORE.RESTR>
0

>  <SCORE.RESTR.CAVITY>
0

>  <SCORE.RESTR.norm>
0

>  <SCORE.SYSTEM>
0

>  <SCORE.SYSTEM.CONST>
0

>  <SCORE.SYSTEM.DIHEDRAL>
0

>  <SCORE.SYSTEM.SOLV>
0

>  <SCORE.SYSTEM.norm>
0

>  <SCORE.heavy>
12

>  <SCORE.norm>
-1.25461

>  <RMSD>
3.033

$$$$
ligand
 OpenBabel11021811503D
libRbt.so/2013.1/901 2013/11/27
 12 13  0  0  0  0  0  0  0  0999 V2000
    4.7499   15.4316    3.9131 C   0  0  0  0  0  0  0  0  0  0  0  0
    6.0870   17.0852    2.9577 C   0  0  0  0  0  0  0  0  0  0  0  0
    4.0953   14.2808    3.7864 N   0  0  0  0  0  0  0  0  0  0  0  0
    6.7355   17.6331    1.9242 N   0  0  0  0  0  0  0  0  0  0  0  0
    5.4007   15.9403    2.8441 N   0  0  0  0  0  0  0  0  0  0  0  0
    4.7768   16.0575    5.1107 N   0  0  0  0  0  0  0  0  0  0  0  0
    6.8364   19.6192    5.5432 N   0  0  0  0  0  0  0  0  0  0  0  0
    6.1531   19.0577    6.6329 C   0  0  0  0  0  0  0  0  0  0  0  0
    5.4436   17.8445    6.4735 N   0  0  0  0  0  0  0  0  0  0  0  0
    5.4484   17.2246    5.2737 C   0  0  0  0  0  0  0  0  0  0  0  0
    6.1339   17.7652    4.1810 C   0  0  0  0  0  0  0  0  0  0  0  0
    6.8349   18.9643    4.2958 C   0  0  0  0  0  0  0  0  0  0  0  0
  1  3  1  0  0  0  0
  1  5  1  0  0  0  0
  1  6  2  0  0  0  0
  2  5  2  0  0  0  0
  2 11  1  0  0  0  0
  2  4  1  0  0  0  0
  6 10  1  0  0  0  0
  7  8  2  0  0  0  0
  7 12  1  0  0  0  0
  8  9  1  0  0  0  0
  9 10  2  0  0  0  0
 10 11  1  0  0  0  0
 11 12  2  0  0  0  0
M  END
>  <CHROM.1>
5.71108511,17.21542134,4.40131115,2.21888289,-0.96489243,-2.03839052

>  <Name>
ligand

>  <RI>
0

>  <Rbt.Current_Directory>
/home/itssahil/PROJECTS/Mol_Feturizer/New_Systems/rnas/4LX5

>  <Rbt.Executable>
rbdock ($Id: //depot/dev/client3/rdock/2013.1/src/exe/rbdock.cxx#4 $)

>  <Rbt.Library>
libRbt.so (2013.1, Build901 2013/11/27)

>  <Rbt.Parameter_File>
/export/apps/rDock/src/rDock_2013.1_src/data/scripts/dock_solv.prm

>  <Rbt.Receptor>
prm/pocket_docking_8.prm

>  <SCORE>
-15.0976

>  <SCORE.INTER>
-15.0976

>  <SCORE.INTER.CONST>
1

>  <SCORE.INTER.POLAR>
0

>  <SCORE.INTER.ROT>
0

>  <SCORE.INTER.SOLV>
16.0136

>  <SCORE.INTER.VDW>
-19.0029

>  <SCORE.INTER.norm>
-1.25813

>  <SCORE.INTRA>
0

>  <SCORE.INTRA.DIHEDRAL>
0

>  <SCORE.INTRA.DIHEDRAL.0>
0

>  <SCORE.INTRA.POLAR>
0

>  <SCORE.INTRA.POLAR.0>
0

>  <SCORE.INTRA.REPUL>
0

>  <SCORE.INTRA.REPUL.0>
0

>  <SCORE.INTRA.SOLV>
0

>  <SCORE.INTRA.SOLV.lig_0>
-48.1583

>  <SCORE.INTRA.VDW>
0

>  <SCORE.INTRA.VDW.0>
0

>  <SCORE.INTRA.norm>
0

>  <SCORE.RESTR>
0

>  <SCORE.RESTR.CAVITY>
0

>  <SCORE.RESTR.norm>
0

>  <SCORE.SYSTEM>
0

>  <SCORE.SYSTEM.CONST>
0

>  <SCORE.SYSTEM.DIHEDRAL>
0

>  <SCORE.SYSTEM.SOLV>
0

>  <SCORE.SYSTEM.norm>
0

>  <SCORE.heavy>
12

>  <SCORE.norm>
-1.25813

>  <RMSD>
3.033

$$$$
ligand
 OpenBabel11021811503D
libRbt.so/2013.1/901 2013/11/27
 12 13  0  0  0  0  0  0  0  0999 V2000
    4.7107   15.4370    3.9131 C   0  0  0  0  0  0  0  0  0  0  0  0
    6.0538   17.0736    2.9372 C   0  0  0  0  0  0  0  0  0  0  0  0
    4.0416   14.2934    3.7972 N   0  0  0  0  0  0  0  0  0  0  0  0
    6.6950   17.6122    1.8942 N   0  0  0  0  0  0  0  0  0  0  0  0
    5.3533   15.9363    2.8347 N   0  0  0  0  0  0  0  0  0  0  0  0
    4.7601   16.0648    5.1090 N   0  0  0  0  0  0  0  0  0  0  0  0
    6.8650   19.6039    5.5076 N   0  0  0  0  0  0  0  0  0  0  0  0
    6.1896   19.0522    6.6071 C   0  0  0  0  0  0  0  0  0  0  0  0
    5.4645   17.8468    6.4594 N   0  0  0  0  0  0  0  0  0  0  0  0
    5.4469   17.2246    5.2608 C   0  0  0  0  0  0  0  0  0  0  0  0
    6.1242   17.7554    4.1583 C   0  0  0  0  0  0  0  0  0  0  0  0
    6.8400   18.9467    4.2616 C   0  0  0  0  0  0  0  0  0  0  0  0
  1  3  1  0  0  0  0
  1  5  1  0  0  0  0
  1  6  2  0  0  0  0
  2  5  2  0  0  0  0
  2 11  1  0  0  0  0
  2  4  1  0  0  0  0
  6 10  1  0  0  0  0
  7  8  2  0  0  0  0
  7 12  1  0  0  0  0
  8  9  1  0  0  0  0
  9 10  2  0  0  0  0
 10 11  1  0  0  0  0
 11 12  2  0  0  0  0
M  END
>  <CHROM.1>
5.69808744,17.21083705,4.38519436,2.24787997,-0.96048301,-2.01656134

>  <Name>
ligand

>  <RI>
0

>  <Rbt.Current_Directory>
/home/itssahil/PROJECTS/Mol_Feturizer/New_Systems/rnas/4LX5

>  <Rbt.Executable>
rbdock ($Id: //depot/dev/client3/rdock/2013.1/src/exe/rbdock.cxx#4 $)

>  <Rbt.Library>
libRbt.so (2013.1, Build901 2013/11/27)

>  <Rbt.Parameter_File>
/export/apps/rDock/src/rDock_2013.1_src/data/scripts/dock_solv.prm

>  <Rbt.Receptor>
prm/pocket_docking_3.prm

>  <SCORE>
-15.0243

>  <SCORE.INTER>
-15.0243

>  <SCORE.INTER.CONST>
1

>  <SCORE.INTER.POLAR>
0

>  <SCORE.INTER.ROT>
0

>  <SCORE.INTER.SOLV>
15.7381

>  <SCORE.INTER.VDW>
-18.8622

>  <SCORE.INTER.norm>
-1.25202

>  <SCORE.INTRA>
0

>  <SCORE.INTRA.DIHEDRAL>
0

>  <SCORE.INTRA.DIHEDRAL.0>
0

>  <SCORE.INTRA.POLAR>
0

>  <SCORE.INTRA.POLAR.0>
0

>  <SCORE.INTRA.REPUL>
0

>  <SCORE.INTRA.REPUL.0>
0

>  <SCORE.INTRA.SOLV>
0

>  <SCORE.INTRA.SOLV.lig_0>
-48.1583

>  <SCORE.INTRA.VDW>
0

>  <SCORE.INTRA.VDW.0>
0

>  <SCORE.INTRA.norm>
0

>  <SCORE.RESTR>
0

>  <SCORE.RESTR.CAVITY>
0

>  <SCORE.RESTR.norm>
0

>  <SCORE.SYSTEM>
0

>  <SCORE.SYSTEM.CONST>
0

>  <SCORE.SYSTEM.DIHEDRAL>
0

>  <SCORE.SYSTEM.SOLV>
0

>  <SCORE.SYSTEM.norm>
0

>  <SCORE.heavy>
12

>  <SCORE.norm>
-1.25202

>  <RMSD>
3.034

$$$$
ligand
 OpenBabel11021811503D
libRbt.so/2013.1/901 2013/11/27
 12 13  0  0  0  0  0  0  0  0999 V2000
    4.7520   15.4302    3.9277 C   0  0  0  0  0  0  0  0  0  0  0  0
    6.0767   17.0768    2.9432 C   0  0  0  0  0  0  0  0  0  0  0  0
    4.0942   14.2796    3.8170 N   0  0  0  0  0  0  0  0  0  0  0  0
    6.7103   17.6181    1.8971 N   0  0  0  0  0  0  0  0  0  0  0  0
    5.3874   15.9322    2.8462 N   0  0  0  0  0  0  0  0  0  0  0  0
    4.7976   16.0627    5.1212 N   0  0  0  0  0  0  0  0  0  0  0  0
    6.8679   19.6240    5.5032 N   0  0  0  0  0  0  0  0  0  0  0  0
    6.2003   19.0693    6.6061 C   0  0  0  0  0  0  0  0  0  0  0  0
    5.4870   17.8562    6.4640 N   0  0  0  0  0  0  0  0  0  0  0  0
    5.4731   17.2298    5.2676 C   0  0  0  0  0  0  0  0  0  0  0  0
    6.1427   17.7635    4.1618 C   0  0  0  0  0  0  0  0  0  0  0  0
    6.8469   18.9622    4.2595 C   0  0  0  0  0  0  0  0  0  0  0  0
  1  3  1  0  0  0  0
  1  5  1  0  0  0  0
  1  6  2  0  0  0  0
  2  5  2  0  0  0  0
  2 11  1  0  0  0  0
  2  4  1  0  0  0  0
  6 10  1  0  0  0  0
  7  8  2  0  0  0  0
  7 12  1  0  0  0  0
  8  9  1  0  0  0  0
  9 10  2  0  0  0  0
 10 11  1  0  0  0  0
 11 12  2  0  0  0  0
M  END
>  <CHROM.1>
5.72260510,17.21545653,4.39152050,2.24355275,-0.97039177,-2.02358156

>  <Name>
ligand

>  <RI>
0

>  <Rbt.Current_Directory>
/home/itssahil/PROJECTS/Mol_Feturizer/New_Systems/rnas/4LX5

>  <Rbt.Executable>
rbdock ($Id: //depot/dev/client3/rdock/2013.1/src/exe/rbdock.cxx#4 $)

>  <Rbt.Library>
libRbt.so (2013.1, Build901 2013/11/27)

>  <Rbt.Parameter_File>
/export/apps/rDock/src/rDock_2013.1_src/data/scripts/dock_solv.prm

>  <Rbt.Receptor>
prm/pocket_docking_7.prm

>  <SCORE>
-15.0611

>  <SCORE.INTER>
-15.0611

>  <SCORE.INTER.CONST>
1

>  <SCORE.INTER.POLAR>
0

>  <SCORE.INTER.ROT>
0

>  <SCORE.INTER.SOLV>
16.0297

>  <SCORE.INTER.VDW>
-18.984

>  <SCORE.INTER.norm>
-1.25509

>  <SCORE.INTRA>
0

>  <SCORE.INTRA.DIHEDRAL>
0

>  <SCORE.INTRA.DIHEDRAL.0>
0

>  <SCORE.INTRA.POLAR>
0

>  <SCORE.INTRA.POLAR.0>
0

>  <SCORE.INTRA.REPUL>
0

>  <SCORE.INTRA.REPUL.0>
0

>  <SCORE.INTRA.SOLV>
0

>  <SCORE.INTRA.SOLV.lig_0>
-48.1583

>  <SCORE.INTRA.VDW>
0

>  <SCORE.INTRA.VDW.0>
0

>  <SCORE.INTRA.norm>
0

>  <SCORE.RESTR>
0

>  <SCORE.RESTR.CAVITY>
0

>  <SCORE.RESTR.norm>
0

>  <SCORE.SYSTEM>
0

>  <SCORE.SYSTEM.CONST>
0

>  <SCORE.SYSTEM.DIHEDRAL>
0

>  <SCORE.SYSTEM.SOLV>
0

>  <SCORE.SYSTEM.norm>
0

>  <SCORE.heavy>
12

>  <SCORE.norm>
-1.25509

>  <RMSD>
3.034

$$$$
ligand
 OpenBabel11021811503D
libRbt.so/2013.1/901 2013/11/27
 12 13  0  0  0  0  0  0  0  0999 V2000
    4.7347   15.5323    3.9272 C   0  0  0  0  0  0  0  0  0  0  0  0
    6.1479   17.1247    2.9776 C   0  0  0  0  0  0  0  0  0  0  0  0
    4.0377   14.4066    3.8005 N   0  0  0  0  0  0  0  0  0  0  0  0
    6.8314   17.6382    1.9489 N   0  0  0  0  0  0  0  0  0  0  0  0
    5.4194   16.0063    2.8634 N   0  0  0  0  0  0  0  0  0  0  0  0
    4.7692   16.1669    5.1200 N   0  0  0  0  0  0  0  0  0  0  0  0
    6.9592   19.6499    5.5530 N   0  0  0  0  0  0  0  0  0  0  0  0
    6.2398   19.1246    6.6374 C   0  0  0  0  0  0  0  0  0  0  0  0
    5.4860   17.9384    6.4777 N   0  0  0  0  0  0  0  0  0  0  0  0
    5.4833   17.3086    5.2831 C   0  0  0  0  0  0  0  0  0  0  0  0
    6.2042   17.8129    4.1958 C   0  0  0  0  0  0  0  0  0  0  0  0
    6.9496   18.9849    4.3109 C   0  0  0  0  0  0  0  0  0  0  0  0
  1  3  1  0  0  0  0
  1  5  1  0  0  0  0
  1  6  2  0  0  0  0
  2  5  2  0  0  0  0
  2 11  1  0  0  0  0
  2  4  1  0  0  0  0
  6 10  1  0  0  0  0
  7  8  2  0  0  0  0
  7 12  1  0  0  0  0
  8  9  1  0  0  0  0
  9 10  2  0  0  0  0
 10 11  1  0  0  0  0
 11 12  2  0  0  0  0
M  END
>  <CHROM.1>
5.75744635,17.28174922,4.41461004,2.22745059,-0.92402151,-2.03974403

>  <Name>
ligand

>  <RI>
0

>  <Rbt.Current_Directory>
/home/itssahil/PROJECTS/Mol_Feturizer/New_Systems/rnas/4LX5

>  <Rbt.Executable>
rbdock ($Id: //depot/dev/client3/rdock/2013.1/src/exe/rbdock.cxx#4 $)

>  <Rbt.Library>
libRbt.so (2013.1, Build901 2013/11/27)

>  <Rbt.Parameter_File>
/export/apps/rDock/src/rDock_2013.1_src/data/scripts/dock_solv.prm

>  <Rbt.Receptor>
prm/blind_docking_40.prm

>  <SCORE>
-15.0456

>  <SCORE.INTER>
-15.0456

>  <SCORE.INTER.CONST>
1

>  <SCORE.INTER.POLAR>
0

>  <SCORE.INTER.ROT>
0

>  <SCORE.INTER.SOLV>
15.7694

>  <SCORE.INTER.VDW>
-18.8869

>  <SCORE.INTER.norm>
-1.2538

>  <SCORE.INTRA>
0

>  <SCORE.INTRA.DIHEDRAL>
0

>  <SCORE.INTRA.DIHEDRAL.0>
0

>  <SCORE.INTRA.POLAR>
0

>  <SCORE.INTRA.POLAR.0>
0

>  <SCORE.INTRA.REPUL>
0

>  <SCORE.INTRA.REPUL.0>
0

>  <SCORE.INTRA.SOLV>
0

>  <SCORE.INTRA.SOLV.lig_0>
-48.1583

>  <SCORE.INTRA.VDW>
0

>  <SCORE.INTRA.VDW.0>
0

>  <SCORE.INTRA.norm>
0

>  <SCORE.RESTR>
0

>  <SCORE.RESTR.CAVITY>
0

>  <SCORE.RESTR.norm>
0

>  <SCORE.SYSTEM>
0

>  <SCORE.SYSTEM.CONST>
0

>  <SCORE.SYSTEM.DIHEDRAL>
0

>  <SCORE.SYSTEM.SOLV>
0

>  <SCORE.SYSTEM.norm>
0

>  <SCORE.heavy>
12

>  <SCORE.norm>
-1.2538

>  <RMSD>
3.035

$$$$
ligand
 OpenBabel11021811503D
libRbt.so/2013.1/901 2013/11/27
 12 13  0  0  0  0  0  0  0  0999 V2000
    4.7243   15.4477    3.9160 C   0  0  0  0  0  0  0  0  0  0  0  0
    6.0846   17.0794    2.9558 C   0  0  0  0  0  0  0  0  0  0  0  0
    4.0546   14.3052    3.7929 N   0  0  0  0  0  0  0  0  0  0  0  0
    6.7417   17.6144    1.9209 N   0  0  0  0  0  0  0  0  0  0  0  0
    5.3833   15.9433    2.8458 N   0  0  0  0  0  0  0  0  0  0  0  0
    4.7579   16.0780    5.1111 N   0  0  0  0  0  0  0  0  0  0  0  0
    6.8642   19.6137    5.5320 N   0  0  0  0  0  0  0  0  0  0  0  0
    6.1721   19.0657    6.6230 C   0  0  0  0  0  0  0  0  0  0  0  0
    5.4467   17.8615    6.4676 N   0  0  0  0  0  0  0  0  0  0  0  0
    5.4449   17.2367    5.2702 C   0  0  0  0  0  0  0  0  0  0  0  0
    6.1389   17.7637    4.1763 C   0  0  0  0  0  0  0  0  0  0  0  0
    6.8557   18.9538    4.2872 C   0  0  0  0  0  0  0  0  0  0  0  0
  1  3  1  0  0  0  0
  1  5  1  0  0  0  0
  1  6  2  0  0  0  0
  2  5  2  0  0  0  0
  2 11  1  0  0  0  0
  2  4  1  0  0  0  0
  6 10  1  0  0  0  0
  7  8  2  0  0  0  0
  7 12  1  0  0  0  0
  8  9  1  0  0  0  0
  9 10  2  0  0  0  0
 10 11  1  0  0  0  0
 11 12  2  0  0  0  0
M  END
>  <CHROM.1>
5.70852555,17.22052465,4.39826859,2.22720434,-0.95237433,-2.03562071

>  <Name>
ligand

>  <RI>
0

>  <Rbt.Current_Directory>
/home/itssahil/PROJECTS/Mol_Feturizer/New_Systems/rnas/4LX5

>  <Rbt.Executable>
rbdock ($Id: //depot/dev/client3/rdock/2013.1/src/exe/rbdock.cxx#4 $)

>  <Rbt.Library>
libRbt.so (2013.1, Build901 2013/11/27)

>  <Rbt.Parameter_File>
/export/apps/rDock/src/rDock_2013.1_src/data/scripts/dock_solv.prm

>  <Rbt.Receptor>
prm/blind_docking_60.prm

>  <SCORE>
-15.0232

>  <SCORE.INTER>
-15.0232

>  <SCORE.INTER.CONST>
1

>  <SCORE.INTER.POLAR>
0

>  <SCORE.INTER.ROT>
0

>  <SCORE.INTER.SOLV>
15.8282

>  <SCORE.INTER.VDW>
-18.8916

>  <SCORE.INTER.norm>
-1.25193

>  <SCORE.INTRA>
0

>  <SCORE.INTRA.DIHEDRAL>
0

>  <SCORE.INTRA.DIHEDRAL.0>
0

>  <SCORE.INTRA.POLAR>
0

>  <SCORE.INTRA.POLAR.0>
0

>  <SCORE.INTRA.REPUL>
0

>  <SCORE.INTRA.REPUL.0>
0

>  <SCORE.INTRA.SOLV>
0

>  <SCORE.INTRA.SOLV.lig_0>
-48.1583

>  <SCORE.INTRA.VDW>
0

>  <SCORE.INTRA.VDW.0>
0

>  <SCORE.INTRA.norm>
0

>  <SCORE.RESTR>
0

>  <SCORE.RESTR.CAVITY>
0

>  <SCORE.RESTR.norm>
0

>  <SCORE.SYSTEM>
0

>  <SCORE.SYSTEM.CONST>
0

>  <SCORE.SYSTEM.DIHEDRAL>
0

>  <SCORE.SYSTEM.SOLV>
0

>  <SCORE.SYSTEM.norm>
0

>  <SCORE.heavy>
12

>  <SCORE.norm>
-1.25193

>  <RMSD>
3.035

$$$$
ligand
 OpenBabel11021811503D
libRbt.so/2013.1/901 2013/11/27
 12 13  0  0  0  0  0  0  0  0999 V2000
    4.7689   15.4549    3.9363 C   0  0  0  0  0  0  0  0  0  0  0  0
    6.1079   17.0961    2.9624 C   0  0  0  0  0  0  0  0  0  0  0  0
    4.1154   14.3020    3.8234 N   0  0  0  0  0  0  0  0  0  0  0  0
    6.7594   17.6300    1.9234 N   0  0  0  0  0  0  0  0  0  0  0  0
    5.4227   15.9492    2.8624 N   0  0  0  0  0  0  0  0  0  0  0  0
    4.7914   16.0974    5.1252 N   0  0  0  0  0  0  0  0  0  0  0  0
    6.8473   19.6662    5.5149 N   0  0  0  0  0  0  0  0  0  0  0  0
    6.1609   19.1193    6.6101 C   0  0  0  0  0  0  0  0  0  0  0  0
    5.4527   17.9035    6.4652 N   0  0  0  0  0  0  0  0  0  0  0  0
    5.4618   17.2671    5.2741 C   0  0  0  0  0  0  0  0  0  0  0  0
    6.1504   17.7930    4.1762 C   0  0  0  0  0  0  0  0  0  0  0  0
    6.8502   18.9940    4.2766 C   0  0  0  0  0  0  0  0  0  0  0  0
  1  3  1  0  0  0  0
  1  5  1  0  0  0  0
  1  6  2  0  0  0  0
  2  5  2  0  0  0  0
  2 11  1  0  0  0  0
  2  4  1  0  0  0  0
  6 10  1  0  0  0  0
  7  8  2  0  0  0  0
  7 12  1  0  0  0  0
  8  9  1  0  0  0  0
  9 10  2  0  0  0  0
 10 11  1  0  0  0  0
 11 12  2  0  0  0  0
M  END
>  <CHROM.1>
5.72726298,17.24603759,4.40279866,2.21333835,-0.96402305,-2.05680045

>  <Name>
ligand

>  <RI>
0

>  <Rbt.Current_Directory>
/home/itssahil/PROJECTS/Mol_Feturizer/New_Systems/rnas/4LX5

>  <Rbt.Executable>
rbdock ($Id: //depot/dev/client3/rdock/2013.1/src/exe/rbdock.cxx#4 $)

>  <Rbt.Library>
libRbt.so (2013.1, Build901 2013/11/27)

>  <Rbt.Parameter_File>
/export/apps/rDock/src/rDock_2013.1_src/data/scripts/dock_solv.prm

>  <Rbt.Receptor>
prm/pocket_docking_6.prm

>  <SCORE>
-15.036

>  <SCORE.INTER>
-15.036

>  <SCORE.INTER.CONST>
1

>  <SCORE.INTER.POLAR>
0

>  <SCORE.INTER.ROT>
0

>  <SCORE.INTER.SOLV>
16.1756

>  <SCORE.INTER.VDW>
-19.0159

>  <SCORE.INTER.norm>
-1.253

>  <SCORE.INTRA>
0

>  <SCORE.INTRA.DIHEDRAL>
0

>  <SCORE.INTRA.DIHEDRAL.0>
0

>  <SCORE.INTRA.POLAR>
0

>  <SCORE.INTRA.POLAR.0>
0

>  <SCORE.INTRA.REPUL>
0

>  <SCORE.INTRA.REPUL.0>
0

>  <SCORE.INTRA.SOLV>
0

>  <SCORE.INTRA.SOLV.lig_0>
-48.1583

>  <SCORE.INTRA.VDW>
0

>  <SCORE.INTRA.VDW.0>
0

>  <SCORE.INTRA.norm>
0

>  <SCORE.RESTR>
0

>  <SCORE.RESTR.CAVITY>
0

>  <SCORE.RESTR.norm>
0

>  <SCORE.SYSTEM>
0

>  <SCORE.SYSTEM.CONST>
0

>  <SCORE.SYSTEM.DIHEDRAL>
0

>  <SCORE.SYSTEM.SOLV>
0

>  <SCORE.SYSTEM.norm>
0

>  <SCORE.heavy>
12

>  <SCORE.norm>
-1.253

>  <RMSD>
3.035

$$$$
ligand
 OpenBabel11021811503D
libRbt.so/2013.1/901 2013/11/27
 12 13  0  0  0  0  0  0  0  0999 V2000
    4.7540   15.4515    3.9282 C   0  0  0  0  0  0  0  0  0  0  0  0
    6.1038   17.0901    2.9648 C   0  0  0  0  0  0  0  0  0  0  0  0
    4.0901   14.3054    3.8068 N   0  0  0  0  0  0  0  0  0  0  0  0
    6.7562   17.6281    1.9285 N   0  0  0  0  0  0  0  0  0  0  0  0
    5.4083   15.9502    2.8566 N   0  0  0  0  0  0  0  0  0  0  0  0
    4.7864   16.0825    5.1229 N   0  0  0  0  0  0  0  0  0  0  0  0
    6.8747   19.6294    5.5387 N   0  0  0  0  0  0  0  0  0  0  0  0
    6.1875   19.0783    6.6311 C   0  0  0  0  0  0  0  0  0  0  0  0
    5.4682   17.8701    6.4775 N   0  0  0  0  0  0  0  0  0  0  0  0
    5.4675   17.2449    5.2804 C   0  0  0  0  0  0  0  0  0  0  0  0
    6.1567   17.7751    4.1850 C   0  0  0  0  0  0  0  0  0  0  0  0
    6.8673   18.9690    4.2941 C   0  0  0  0  0  0  0  0  0  0  0  0
  1  3  1  0  0  0  0
  1  5  1  0  0  0  0
  1  6  2  0  0  0  0
  2  5  2  0  0  0  0
  2 11  1  0  0  0  0
  2  4  1  0  0  0  0
  6 10  1  0  0  0  0
  7  8  2  0  0  0  0
  7 12  1  0  0  0  0
  8  9  1  0  0  0  0
  9 10  2  0  0  0  0
 10 11  1  0  0  0  0
 11 12  2  0  0  0  0
M  END
>  <CHROM.1>
5.72963025,17.22971902,4.40795534,2.22592209,-0.95795117,-2.03706698

>  <Name>
ligand

>  <RI>
0

>  <Rbt.Current_Directory>
/home/itssahil/PROJECTS/Mol_Feturizer/New_Systems/rnas/4LX5

>  <Rbt.Executable>
rbdock ($Id: //depot/dev/client3/rdock/2013.1/src/exe/rbdock.cxx#4 $)

>  <Rbt.Library>
libRbt.so (2013.1, Build901 2013/11/27)

>  <Rbt.Parameter_File>
/export/apps/rDock/src/rDock_2013.1_src/data/scripts/dock_solv.prm

>  <Rbt.Receptor>
prm/pocket_docking_8.prm

>  <SCORE>
-15.0299

>  <SCORE.INTER>
-15.0299

>  <SCORE.INTER.CONST>
1

>  <SCORE.INTER.POLAR>
0

>  <SCORE.INTER.ROT>
0

>  <SCORE.INTER.SOLV>
16.0165

>  <SCORE.INTER.VDW>
-18.9587

>  <SCORE.INTER.norm>
-1.25249

>  <SCORE.INTRA>
0

>  <SCORE.INTRA.DIHEDRAL>
0

>  <SCORE.INTRA.DIHEDRAL.0>
0

>  <SCORE.INTRA.POLAR>
0

>  <SCORE.INTRA.POLAR.0>
0

>  <SCORE.INTRA.REPUL>
0

>  <SCORE.INTRA.REPUL.0>
0

>  <SCORE.INTRA.SOLV>
0

>  <SCORE.INTRA.SOLV.lig_0>
-48.1583

>  <SCORE.INTRA.VDW>
0

>  <SCORE.INTRA.VDW.0>
0

>  <SCORE.INTRA.norm>
0

>  <SCORE.RESTR>
0

>  <SCORE.RESTR.CAVITY>
0

>  <SCORE.RESTR.norm>
0

>  <SCORE.SYSTEM>
0

>  <SCORE.SYSTEM.CONST>
0

>  <SCORE.SYSTEM.DIHEDRAL>
0

>  <SCORE.SYSTEM.SOLV>
0

>  <SCORE.SYSTEM.norm>
0

>  <SCORE.heavy>
12

>  <SCORE.norm>
-1.25249

>  <RMSD>
3.035

$$$$
ligand
 OpenBabel11021811503D
libRbt.so/2013.1/901 2013/11/27
 12 13  0  0  0  0  0  0  0  0999 V2000
    4.7616   15.4794    3.9308 C   0  0  0  0  0  0  0  0  0  0  0  0
    6.1360   17.1033    2.9775 C   0  0  0  0  0  0  0  0  0  0  0  0
    4.0871   14.3400    3.8047 N   0  0  0  0  0  0  0  0  0  0  0  0
    6.8026   17.6338    1.9464 N   0  0  0  0  0  0  0  0  0  0  0  0
    5.4299   15.9705    2.8643 N   0  0  0  0  0  0  0  0  0  0  0  0
    4.7904   16.1110    5.1253 N   0  0  0  0  0  0  0  0  0  0  0  0
    6.9111   19.6369    5.5558 N   0  0  0  0  0  0  0  0  0  0  0  0
    6.2092   19.0937    6.6429 C   0  0  0  0  0  0  0  0  0  0  0  0
    5.4790   17.8928    6.4841 N   0  0  0  0  0  0  0  0  0  0  0  0
    5.4819   17.2666    5.2876 C   0  0  0  0  0  0  0  0  0  0  0  0
    6.1857   17.7888    4.1976 C   0  0  0  0  0  0  0  0  0  0  0  0
    6.9075   18.9755    4.3118 C   0  0  0  0  0  0  0  0  0  0  0  0
  1  3  1  0  0  0  0
  1  5  1  0  0  0  0
  1  6  2  0  0  0  0
  2  5  2  0  0  0  0
  2 11  1  0  0  0  0
  2  4  1  0  0  0  0
  6 10  1  0  0  0  0
  7  8  2  0  0  0  0
  7 12  1  0  0  0  0
  8  9  1  0  0  0  0
  9 10  2  0  0  0  0
 10 11  1  0  0  0  0
 11 12  2  0  0  0  0
M  END
>  <CHROM.1>
5.75122096,17.24800931,4.41738135,2.22091783,-0.94506877,-2.04195720

>  <Name>
ligand

>  <RI>
0

>  <Rbt.Current_Directory>
/home/itssahil/PROJECTS/Mol_Feturizer/New_Systems/rnas/4LX5

>  <Rbt.Executable>
rbdock ($Id: //depot/dev/client3/rdock/2013.1/src/exe/rbdock.cxx#4 $)

>  <Rbt.Library>
libRbt.so (2013.1, Build901 2013/11/27)

>  <Rbt.Parameter_File>
/export/apps/rDock/src/rDock_2013.1_src/data/scripts/dock_solv.prm

>  <Rbt.Receptor>
prm/blind_docking_80.prm

>  <SCORE>
-15.0187

>  <SCORE.INTER>
-15.0187

>  <SCORE.INTER.CONST>
1

>  <SCORE.INTER.POLAR>
0

>  <SCORE.INTER.ROT>
0

>  <SCORE.INTER.SOLV>
16.0131

>  <SCORE.INTER.VDW>
-18.9502

>  <SCORE.INTER.norm>
-1.25156

>  <SCORE.INTRA>
0

>  <SCORE.INTRA.DIHEDRAL>
0

>  <SCORE.INTRA.DIHEDRAL.0>
0

>  <SCORE.INTRA.POLAR>
0

>  <SCORE.INTRA.POLAR.0>
0

>  <SCORE.INTRA.REPUL>
0

>  <SCORE.INTRA.REPUL.0>
0

>  <SCORE.INTRA.SOLV>
0

>  <SCORE.INTRA.SOLV.lig_0>
-48.1583

>  <SCORE.INTRA.VDW>
0

>  <SCORE.INTRA.VDW.0>
0

>  <SCORE.INTRA.norm>
0

>  <SCORE.RESTR>
0

>  <SCORE.RESTR.CAVITY>
0

>  <SCORE.RESTR.norm>
0

>  <SCORE.SYSTEM>
0

>  <SCORE.SYSTEM.CONST>
0

>  <SCORE.SYSTEM.DIHEDRAL>
0

>  <SCORE.SYSTEM.SOLV>
0

>  <SCORE.SYSTEM.norm>
0

>  <SCORE.heavy>
12

>  <SCORE.norm>
-1.25156

>  <RMSD>
3.036

$$$$
ligand
 OpenBabel11021811503D
libRbt.so/2013.1/901 2013/11/27
 12 13  0  0  0  0  0  0  0  0999 V2000
    4.7131   15.3803    3.9157 C   0  0  0  0  0  0  0  0  0  0  0  0
    6.0622   17.0055    2.9289 C   0  0  0  0  0  0  0  0  0  0  0  0
    4.0467   14.2341    3.8097 N   0  0  0  0  0  0  0  0  0  0  0  0
    6.7117   17.5307    1.8843 N   0  0  0  0  0  0  0  0  0  0  0  0
    5.3643   15.8657    2.8361 N   0  0  0  0  0  0  0  0  0  0  0  0
    4.7512   16.0246    5.1032 N   0  0  0  0  0  0  0  0  0  0  0  0
    6.8473   19.5721    5.4712 N   0  0  0  0  0  0  0  0  0  0  0  0
    6.1633   19.0345    6.5724 C   0  0  0  0  0  0  0  0  0  0  0  0
    5.4413   17.8260    6.4350 N   0  0  0  0  0  0  0  0  0  0  0  0
    5.4349   17.1874    5.2450 C   0  0  0  0  0  0  0  0  0  0  0  0
    6.1210   17.7041    4.1411 C   0  0  0  0  0  0  0  0  0  0  0  0
    6.8341   18.8978    4.2342 C   0  0  0  0  0  0  0  0  0  0  0  0
  1  3  1  0  0  0  0
  1  5  1  0  0  0  0
  1  6  2  0  0  0  0
  2  5  2  0  0  0  0
  2 11  1  0  0  0  0
  2  4  1  0  0  0  0
  6 10  1  0  0  0  0
  7  8  2  0  0  0  0
  7 12  1  0  0  0  0
  8  9  1  0  0  0  0
  9 10  2  0  0  0  0
 10 11  1  0  0  0  0
 11 12  2  0  0  0  0
M  END
>  <CHROM.1>
5.69374199,17.16198982,4.37180442,2.23316086,-0.95802301,-2.04236858

>  <Name>
ligand

>  <RI>
0

>  <Rbt.Current_Directory>
/home/itssahil/PROJECTS/Mol_Feturizer/New_Systems/rnas/4LX5

>  <Rbt.Executable>
rbdock ($Id: //depot/dev/client3/rdock/2013.1/src/exe/rbdock.cxx#4 $)

>  <Rbt.Library>
libRbt.so (2013.1, Build901 2013/11/27)

>  <Rbt.Parameter_File>
/export/apps/rDock/src/rDock_2013.1_src/data/scripts/dock_solv.prm

>  <Rbt.Receptor>
prm/blind_docking_100.prm

>  <SCORE>
-14.958

>  <SCORE.INTER>
-14.958

>  <SCORE.INTER.CONST>
1

>  <SCORE.INTER.POLAR>
0

>  <SCORE.INTER.ROT>
0

>  <SCORE.INTER.SOLV>
15.836

>  <SCORE.INTER.VDW>
-18.8507

>  <SCORE.INTER.norm>
-1.2465

>  <SCORE.INTRA>
0

>  <SCORE.INTRA.DIHEDRAL>
0

>  <SCORE.INTRA.DIHEDRAL.0>
0

>  <SCORE.INTRA.POLAR>
0

>  <SCORE.INTRA.POLAR.0>
0

>  <SCORE.INTRA.REPUL>
0

>  <SCORE.INTRA.REPUL.0>
0

>  <SCORE.INTRA.SOLV>
0

>  <SCORE.INTRA.SOLV.lig_0>
-48.1583

>  <SCORE.INTRA.VDW>
0

>  <SCORE.INTRA.VDW.0>
0

>  <SCORE.INTRA.norm>
0

>  <SCORE.RESTR>
0

>  <SCORE.RESTR.CAVITY>
0

>  <SCORE.RESTR.norm>
0

>  <SCORE.SYSTEM>
0

>  <SCORE.SYSTEM.CONST>
0

>  <SCORE.SYSTEM.DIHEDRAL>
0

>  <SCORE.SYSTEM.SOLV>
0

>  <SCORE.SYSTEM.norm>
0

>  <SCORE.heavy>
12

>  <SCORE.norm>
-1.2465

>  <RMSD>
3.037

$$$$
ligand
 OpenBabel11021811503D
libRbt.so/2013.1/901 2013/11/27
 12 13  0  0  0  0  0  0  0  0999 V2000
    4.7011   15.3843    3.9131 C   0  0  0  0  0  0  0  0  0  0  0  0
    6.0735   16.9911    2.9283 C   0  0  0  0  0  0  0  0  0  0  0  0
    4.0242   14.2443    3.8080 N   0  0  0  0  0  0  0  0  0  0  0  0
    6.7358   17.5045    1.8859 N   0  0  0  0  0  0  0  0  0  0  0  0
    5.3650   15.8578    2.8360 N   0  0  0  0  0  0  0  0  0  0  0  0
    4.7367   16.0343    5.0976 N   0  0  0  0  0  0  0  0  0  0  0  0
    6.8651   19.5629    5.4634 N   0  0  0  0  0  0  0  0  0  0  0  0
    6.1676   19.0376    6.5622 C   0  0  0  0  0  0  0  0  0  0  0  0
    5.4347   17.8356    6.4255 N   0  0  0  0  0  0  0  0  0  0  0  0
    5.4308   17.1910    5.2387 C   0  0  0  0  0  0  0  0  0  0  0  0
    6.1301   17.6952    4.1374 C   0  0  0  0  0  0  0  0  0  0  0  0
    6.8544   18.8824    4.2298 C   0  0  0  0  0  0  0  0  0  0  0  0
  1  3  1  0  0  0  0
  1  5  1  0  0  0  0
  1  6  2  0  0  0  0
  2  5  2  0  0  0  0
  2 11  1  0  0  0  0
  2  4  1  0  0  0  0
  6 10  1  0  0  0  0
  7  8  2  0  0  0  0
  7 12  1  0  0  0  0
  8  9  1  0  0  0  0
  9 10  2  0  0  0  0
 10 11  1  0  0  0  0
 11 12  2  0  0  0  0
M  END
>  <CHROM.1>
5.69587660,17.15859467,4.36760690,2.22954897,-0.94584244,-2.05038724

>  <Name>
ligand

>  <RI>
0

>  <Rbt.Current_Directory>
/home/itssahil/PROJECTS/Mol_Feturizer/New_Systems/rnas/4LX5

>  <Rbt.Executable>
rbdock ($Id: //depot/dev/client3/rdock/2013.1/src/exe/rbdock.cxx#4 $)

>  <Rbt.Library>
libRbt.so (2013.1, Build901 2013/11/27)

>  <Rbt.Parameter_File>
/export/apps/rDock/src/rDock_2013.1_src/data/scripts/dock_solv.prm

>  <Rbt.Receptor>
prm/blind_docking_40.prm

>  <SCORE>
-15.0118

>  <SCORE.INTER>
-15.0118

>  <SCORE.INTER.CONST>
1

>  <SCORE.INTER.POLAR>
0

>  <SCORE.INTER.ROT>
0

>  <SCORE.INTER.SOLV>
15.7809

>  <SCORE.INTER.VDW>
-18.8682

>  <SCORE.INTER.norm>
-1.25099

>  <SCORE.INTRA>
0

>  <SCORE.INTRA.DIHEDRAL>
0

>  <SCORE.INTRA.DIHEDRAL.0>
0

>  <SCORE.INTRA.POLAR>
0

>  <SCORE.INTRA.POLAR.0>
0

>  <SCORE.INTRA.REPUL>
0

>  <SCORE.INTRA.REPUL.0>
0

>  <SCORE.INTRA.SOLV>
0

>  <SCORE.INTRA.SOLV.lig_0>
-48.1583

>  <SCORE.INTRA.VDW>
0

>  <SCORE.INTRA.VDW.0>
0

>  <SCORE.INTRA.norm>
0

>  <SCORE.RESTR>
0

>  <SCORE.RESTR.CAVITY>
0

>  <SCORE.RESTR.norm>
0

>  <SCORE.SYSTEM>
0

>  <SCORE.SYSTEM.CONST>
0

>  <SCORE.SYSTEM.DIHEDRAL>
0

>  <SCORE.SYSTEM.SOLV>
0

>  <SCORE.SYSTEM.norm>
0

>  <SCORE.heavy>
12

>  <SCORE.norm>
-1.25099

>  <RMSD>
3.037

$$$$
ligand
 OpenBabel11021811503D
libRbt.so/2013.1/901 2013/11/27
 12 13  0  0  0  0  0  0  0  0999 V2000
    4.7689   15.4557    3.9352 C   0  0  0  0  0  0  0  0  0  0  0  0
    6.1137   17.1017    2.9774 C   0  0  0  0  0  0  0  0  0  0  0  0
    4.1127   14.3055    3.8114 N   0  0  0  0  0  0  0  0  0  0  0  0
    6.7681   17.6429    1.9440 N   0  0  0  0  0  0  0  0  0  0  0  0
    5.4257   15.9575    2.8665 N   0  0  0  0  0  0  0  0  0  0  0  0
    4.7914   16.0878    5.1296 N   0  0  0  0  0  0  0  0  0  0  0  0
    6.8559   19.6478    5.5530 N   0  0  0  0  0  0  0  0  0  0  0  0
    6.1665   19.0933    6.6424 C   0  0  0  0  0  0  0  0  0  0  0  0
    5.4554   17.8806    6.4861 N   0  0  0  0  0  0  0  0  0  0  0  0
    5.4646   17.2545    5.2895 C   0  0  0  0  0  0  0  0  0  0  0  0
    6.1562   17.7880    4.1972 C   0  0  0  0  0  0  0  0  0  0  0  0
    6.8590   18.9863    4.3090 C   0  0  0  0  0  0  0  0  0  0  0  0
  1  3  1  0  0  0  0
  1  5  1  0  0  0  0
  1  6  2  0  0  0  0
  2  5  2  0  0  0  0
  2 11  1  0  0  0  0
  2  4  1  0  0  0  0
  6 10  1  0  0  0  0
  7  8  2  0  0  0  0
  7 12  1  0  0  0  0
  8  9  1  0  0  0  0
  9 10  2  0  0  0  0
 10 11  1  0  0  0  0
 11 12  2  0  0  0  0
M  END
>  <CHROM.1>
5.73129151,17.24021054,4.41846259,2.21315417,-0.96103400,-2.04833532

>  <Name>
ligand

>  <RI>
0

>  <Rbt.Current_Directory>
/home/itssahil/PROJECTS/Mol_Feturizer/New_Systems/rnas/4LX5

>  <Rbt.Executable>
rbdock ($Id: //depot/dev/client3/rdock/2013.1/src/exe/rbdock.cxx#4 $)

>  <Rbt.Library>
libRbt.so (2013.1, Build901 2013/11/27)

>  <Rbt.Parameter_File>
/export/apps/rDock/src/rDock_2013.1_src/data/scripts/dock_solv.prm

>  <Rbt.Receptor>
prm/pocket_docking_6.prm

>  <SCORE>
-15.0773

>  <SCORE.INTER>
-15.0773

>  <SCORE.INTER.CONST>
1

>  <SCORE.INTER.POLAR>
0

>  <SCORE.INTER.ROT>
0

>  <SCORE.INTER.SOLV>
16.128

>  <SCORE.INTER.VDW>
-19.0276

>  <SCORE.INTER.norm>
-1.25645

>  <SCORE.INTRA>
0

>  <SCORE.INTRA.DIHEDRAL>
0

>  <SCORE.INTRA.DIHEDRAL.0>
0

>  <SCORE.INTRA.POLAR>
0

>  <SCORE.INTRA.POLAR.0>
0

>  <SCORE.INTRA.REPUL>
0

>  <SCORE.INTRA.REPUL.0>
0

>  <SCORE.INTRA.SOLV>
0

>  <SCORE.INTRA.SOLV.lig_0>
-48.1583

>  <SCORE.INTRA.VDW>
0

>  <SCORE.INTRA.VDW.0>
0

>  <SCORE.INTRA.norm>
0

>  <SCORE.RESTR>
0

>  <SCORE.RESTR.CAVITY>
0

>  <SCORE.RESTR.norm>
0

>  <SCORE.SYSTEM>
0

>  <SCORE.SYSTEM.CONST>
0

>  <SCORE.SYSTEM.DIHEDRAL>
0

>  <SCORE.SYSTEM.SOLV>
0

>  <SCORE.SYSTEM.norm>
0

>  <SCORE.heavy>
12

>  <SCORE.norm>
-1.25645

>  <RMSD>
3.037

$$$$
ligand
 OpenBabel11021811503D
libRbt.so/2013.1/901 2013/11/27
 12 13  0  0  0  0  0  0  0  0999 V2000
    4.6959   15.3855    3.9121 C   0  0  0  0  0  0  0  0  0  0  0  0
    6.0728   16.9913    2.9322 C   0  0  0  0  0  0  0  0  0  0  0  0
    4.0175   14.2466    3.8041 N   0  0  0  0  0  0  0  0  0  0  0  0
    6.7382   17.5050    1.8918 N   0  0  0  0  0  0  0  0  0  0  0  0
    5.3628   15.8593    2.8370 N   0  0  0  0  0  0  0  0  0  0  0  0
    4.7300   16.0339    5.0975 N   0  0  0  0  0  0  0  0  0  0  0  0
    6.8630   19.5588    5.4721 N   0  0  0  0  0  0  0  0  0  0  0  0
    6.1623   19.0333    6.5687 C   0  0  0  0  0  0  0  0  0  0  0  0
    5.4279   17.8326    6.4290 N   0  0  0  0  0  0  0  0  0  0  0  0
    5.4256   17.1895    5.2414 C   0  0  0  0  0  0  0  0  0  0  0  0
    6.1280   17.6939    4.1422 C   0  0  0  0  0  0  0  0  0  0  0  0
    6.8539   18.8798    4.2376 C   0  0  0  0  0  0  0  0  0  0  0  0
  1  3  1  0  0  0  0
  1  5  1  0  0  0  0
  1  6  2  0  0  0  0
  2  5  2  0  0  0  0
  2 11  1  0  0  0  0
  2  4  1  0  0  0  0
  6 10  1  0  0  0  0
  7  8  2  0  0  0  0
  7 12  1  0  0  0  0
  8  9  1  0  0  0  0
  9 10  2  0  0  0  0
 10 11  1  0  0  0  0
 11 12  2  0  0  0  0
M  END
>  <CHROM.1>
5.69242774,17.15767954,4.37089192,2.22752924,-0.94349030,-2.05080858

>  <Name>
ligand

>  <RI>
0

>  <Rbt.Current_Directory>
/home/itssahil/PROJECTS/Mol_Feturizer/New_Systems/rnas/4LX5

>  <Rbt.Executable>
rbdock ($Id: //depot/dev/client3/rdock/2013.1/src/exe/rbdock.cxx#4 $)

>  <Rbt.Library>
libRbt.so (2013.1, Build901 2013/11/27)

>  <Rbt.Parameter_File>
/export/apps/rDock/src/rDock_2013.1_src/data/scripts/dock_solv.prm

>  <Rbt.Receptor>
prm/pocket_docking_5.prm

>  <SCORE>
-15.0108

>  <SCORE.INTER>
-15.0108

>  <SCORE.INTER.CONST>
1

>  <SCORE.INTER.POLAR>
0

>  <SCORE.INTER.ROT>
0

>  <SCORE.INTER.SOLV>
15.7435

>  <SCORE.INTER.VDW>
-18.855

>  <SCORE.INTER.norm>
-1.2509

>  <SCORE.INTRA>
0

>  <SCORE.INTRA.DIHEDRAL>
0

>  <SCORE.INTRA.DIHEDRAL.0>
0

>  <SCORE.INTRA.POLAR>
0

>  <SCORE.INTRA.POLAR.0>
0

>  <SCORE.INTRA.REPUL>
0

>  <SCORE.INTRA.REPUL.0>
0

>  <SCORE.INTRA.SOLV>
0

>  <SCORE.INTRA.SOLV.lig_0>
-48.1583

>  <SCORE.INTRA.VDW>
0

>  <SCORE.INTRA.VDW.0>
0

>  <SCORE.INTRA.norm>
0

>  <SCORE.RESTR>
0

>  <SCORE.RESTR.CAVITY>
0

>  <SCORE.RESTR.norm>
0

>  <SCORE.SYSTEM>
0

>  <SCORE.SYSTEM.CONST>
0

>  <SCORE.SYSTEM.DIHEDRAL>
0

>  <SCORE.SYSTEM.SOLV>
0

>  <SCORE.SYSTEM.norm>
0

>  <SCORE.heavy>
12

>  <SCORE.norm>
-1.2509

>  <RMSD>
3.038

$$$$
ligand
 OpenBabel11021811503D
libRbt.so/2013.1/901 2013/11/27
 12 13  0  0  0  0  0  0  0  0999 V2000
    4.7218   15.5306    3.9345 C   0  0  0  0  0  0  0  0  0  0  0  0
    6.1450   17.1108    2.9792 C   0  0  0  0  0  0  0  0  0  0  0  0
    4.0199   14.4076    3.8125 N   0  0  0  0  0  0  0  0  0  0  0  0
    6.8335   17.6151    1.9493 N   0  0  0  0  0  0  0  0  0  0  0  0
    5.4115   15.9952    2.8697 N   0  0  0  0  0  0  0  0  0  0  0  0
    4.7564   16.1720    5.1237 N   0  0  0  0  0  0  0  0  0  0  0  0
    6.9618   19.6471    5.5420 N   0  0  0  0  0  0  0  0  0  0  0  0
    6.2371   19.1314    6.6276 C   0  0  0  0  0  0  0  0  0  0  0  0
    5.4782   17.9479    6.4729 N   0  0  0  0  0  0  0  0  0  0  0  0
    5.4755   17.3112    5.2819 C   0  0  0  0  0  0  0  0  0  0  0  0
    6.2015   17.8058    4.1936 C   0  0  0  0  0  0  0  0  0  0  0  0
    6.9521   18.9749    4.3038 C   0  0  0  0  0  0  0  0  0  0  0  0
  1  3  1  0  0  0  0
  1  5  1  0  0  0  0
  1  6  2  0  0  0  0
  2  5  2  0  0  0  0
  2 11  1  0  0  0  0
  2  4  1  0  0  0  0
  6 10  1  0  0  0  0
  7  8  2  0  0  0  0
  7 12  1  0  0  0  0
  8  9  1  0  0  0  0
  9 10  2  0  0  0  0
 10 11  1  0  0  0  0
 11 12  2  0  0  0  0
M  END
>  <CHROM.1>
5.75166015,17.27804417,4.41430754,2.22729336,-0.91865602,-2.04567428

>  <Name>
ligand

>  <RI>
0

>  <Rbt.Current_Directory>
/home/itssahil/PROJECTS/Mol_Feturizer/New_Systems/rnas/4LX5

>  <Rbt.Executable>
rbdock ($Id: //depot/dev/client3/rdock/2013.1/src/exe/rbdock.cxx#4 $)

>  <Rbt.Library>
libRbt.so (2013.1, Build901 2013/11/27)

>  <Rbt.Parameter_File>
/export/apps/rDock/src/rDock_2013.1_src/data/scripts/dock_solv.prm

>  <Rbt.Receptor>
prm/pocket_docking_6.prm

>  <SCORE>
-15.0491

>  <SCORE.INTER>
-15.0491

>  <SCORE.INTER.CONST>
1

>  <SCORE.INTER.POLAR>
0

>  <SCORE.INTER.ROT>
0

>  <SCORE.INTER.SOLV>
15.6994

>  <SCORE.INTER.VDW>
-18.8659

>  <SCORE.INTER.norm>
-1.25409

>  <SCORE.INTRA>
0

>  <SCORE.INTRA.DIHEDRAL>
0

>  <SCORE.INTRA.DIHEDRAL.0>
0

>  <SCORE.INTRA.POLAR>
0

>  <SCORE.INTRA.POLAR.0>
0

>  <SCORE.INTRA.REPUL>
0

>  <SCORE.INTRA.REPUL.0>
0

>  <SCORE.INTRA.SOLV>
0

>  <SCORE.INTRA.SOLV.lig_0>
-48.1583

>  <SCORE.INTRA.VDW>
0

>  <SCORE.INTRA.VDW.0>
0

>  <SCORE.INTRA.norm>
0

>  <SCORE.RESTR>
0

>  <SCORE.RESTR.CAVITY>
0

>  <SCORE.RESTR.norm>
0

>  <SCORE.SYSTEM>
0

>  <SCORE.SYSTEM.CONST>
0

>  <SCORE.SYSTEM.DIHEDRAL>
0

>  <SCORE.SYSTEM.SOLV>
0

>  <SCORE.SYSTEM.norm>
0

>  <SCORE.heavy>
12

>  <SCORE.norm>
-1.25409

>  <RMSD>
3.038

$$$$
ligand
 OpenBabel11021811503D
libRbt.so/2013.1/901 2013/11/27
 12 13  0  0  0  0  0  0  0  0999 V2000
    4.7067   15.4577    3.9311 C   0  0  0  0  0  0  0  0  0  0  0  0
    6.0678   17.0784    2.9535 C   0  0  0  0  0  0  0  0  0  0  0  0
    4.0310   14.3177    3.8183 N   0  0  0  0  0  0  0  0  0  0  0  0
    6.7204   17.6052    1.9116 N   0  0  0  0  0  0  0  0  0  0  0  0
    5.3606   15.9449    2.8540 N   0  0  0  0  0  0  0  0  0  0  0  0
    4.7512   16.0938    5.1227 N   0  0  0  0  0  0  0  0  0  0  0  0
    6.8763   19.6220    5.5117 N   0  0  0  0  0  0  0  0  0  0  0  0
    6.1890   19.0826    6.6101 C   0  0  0  0  0  0  0  0  0  0  0  0
    5.4571   17.8809    6.4655 N   0  0  0  0  0  0  0  0  0  0  0  0
    5.4444   17.2502    5.2714 C   0  0  0  0  0  0  0  0  0  0  0  0
    6.1334   17.7685    4.1702 C   0  0  0  0  0  0  0  0  0  0  0  0
    6.8563   18.9559    4.2703 C   0  0  0  0  0  0  0  0  0  0  0  0
  1  3  1  0  0  0  0
  1  5  1  0  0  0  0
  1  6  2  0  0  0  0
  2  5  2  0  0  0  0
  2 11  1  0  0  0  0
  2  4  1  0  0  0  0
  6 10  1  0  0  0  0
  7  8  2  0  0  0  0
  7 12  1  0  0  0  0
  8  9  1  0  0  0  0
  9 10  2  0  0  0  0
 10 11  1  0  0  0  0
 11 12  2  0  0  0  0
M  END
>  <CHROM.1>
5.70211505,17.22842705,4.39779626,2.24105822,-0.95129779,-2.02937291

>  <Name>
ligand

>  <RI>
0

>  <Rbt.Current_Directory>
/home/itssahil/PROJECTS/Mol_Feturizer/New_Systems/rnas/4LX5

>  <Rbt.Executable>
rbdock ($Id: //depot/dev/client3/rdock/2013.1/src/exe/rbdock.cxx#4 $)

>  <Rbt.Library>
libRbt.so (2013.1, Build901 2013/11/27)

>  <Rbt.Parameter_File>
/export/apps/rDock/src/rDock_2013.1_src/data/scripts/dock_solv.prm

>  <Rbt.Receptor>
prm/pocket_docking_6.prm

>  <SCORE>
-15.0251

>  <SCORE.INTER>
-15.0251

>  <SCORE.INTER.CONST>
1

>  <SCORE.INTER.POLAR>
0

>  <SCORE.INTER.ROT>
0

>  <SCORE.INTER.SOLV>
15.7185

>  <SCORE.INTER.VDW>
-18.8562

>  <SCORE.INTER.norm>
-1.25209

>  <SCORE.INTRA>
0

>  <SCORE.INTRA.DIHEDRAL>
0

>  <SCORE.INTRA.DIHEDRAL.0>
0

>  <SCORE.INTRA.POLAR>
0

>  <SCORE.INTRA.POLAR.0>
0

>  <SCORE.INTRA.REPUL>
0

>  <SCORE.INTRA.REPUL.0>
0

>  <SCORE.INTRA.SOLV>
0

>  <SCORE.INTRA.SOLV.lig_0>
-48.1583

>  <SCORE.INTRA.VDW>
0

>  <SCORE.INTRA.VDW.0>
0

>  <SCORE.INTRA.norm>
0

>  <SCORE.RESTR>
0

>  <SCORE.RESTR.CAVITY>
0

>  <SCORE.RESTR.norm>
0

>  <SCORE.SYSTEM>
0

>  <SCORE.SYSTEM.CONST>
0

>  <SCORE.SYSTEM.DIHEDRAL>
0

>  <SCORE.SYSTEM.SOLV>
0

>  <SCORE.SYSTEM.norm>
0

>  <SCORE.heavy>
12

>  <SCORE.norm>
-1.25209

>  <RMSD>
3.039

$$$$
ligand
 OpenBabel11021811503D
libRbt.so/2013.1/901 2013/11/27
 12 13  0  0  0  0  0  0  0  0999 V2000
    4.7588   15.4327    3.9399 C   0  0  0  0  0  0  0  0  0  0  0  0
    6.0848   17.0860    2.9685 C   0  0  0  0  0  0  0  0  0  0  0  0
    4.1083   14.2786    3.8229 N   0  0  0  0  0  0  0  0  0  0  0  0
    6.7264   17.6303    1.9288 N   0  0  0  0  0  0  0  0  0  0  0  0
    5.4026   15.9377    2.8648 N   0  0  0  0  0  0  0  0  0  0  0  0
    4.7886   16.0658    5.1336 N   0  0  0  0  0  0  0  0  0  0  0  0
    6.8359   19.6382    5.5355 N   0  0  0  0  0  0  0  0  0  0  0  0
    6.1599   19.0805    6.6316 C   0  0  0  0  0  0  0  0  0  0  0  0
    5.4546   17.8635    6.4827 N   0  0  0  0  0  0  0  0  0  0  0  0
    5.4564   17.2366    5.2865 C   0  0  0  0  0  0  0  0  0  0  0  0
    6.1346   17.7734    4.1875 C   0  0  0  0  0  0  0  0  0  0  0  0
    6.8313   18.9759    4.2919 C   0  0  0  0  0  0  0  0  0  0  0  0
  1  3  1  0  0  0  0
  1  5  1  0  0  0  0
  1  6  2  0  0  0  0
  2  5  2  0  0  0  0
  2 11  1  0  0  0  0
  2  4  1  0  0  0  0
  6 10  1  0  0  0  0
  7  8  2  0  0  0  0
  7 12  1  0  0  0  0
  8  9  1  0  0  0  0
  9 10  2  0  0  0  0
 10 11  1  0  0  0  0
 11 12  2  0  0  0  0
M  END
>  <CHROM.1>
5.71503373,17.22327650,4.41303684,2.22295957,-0.97054921,-2.04095496

>  <Name>
ligand

>  <RI>
0

>  <Rbt.Current_Directory>
/home/itssahil/PROJECTS/Mol_Feturizer/New_Systems/rnas/4LX5

>  <Rbt.Executable>
rbdock ($Id: //depot/dev/client3/rdock/2013.1/src/exe/rbdock.cxx#4 $)

>  <Rbt.Library>
libRbt.so (2013.1, Build901 2013/11/27)

>  <Rbt.Parameter_File>
/export/apps/rDock/src/rDock_2013.1_src/data/scripts/dock_solv.prm

>  <Rbt.Receptor>
prm/pocket_docking_6.prm

>  <SCORE>
-15.07

>  <SCORE.INTER>
-15.07

>  <SCORE.INTER.CONST>
1

>  <SCORE.INTER.POLAR>
0

>  <SCORE.INTER.ROT>
0

>  <SCORE.INTER.SOLV>
16.0965

>  <SCORE.INTER.VDW>
-19.0121

>  <SCORE.INTER.norm>
-1.25583

>  <SCORE.INTRA>
0

>  <SCORE.INTRA.DIHEDRAL>
0

>  <SCORE.INTRA.DIHEDRAL.0>
0

>  <SCORE.INTRA.POLAR>
0

>  <SCORE.INTRA.POLAR.0>
0

>  <SCORE.INTRA.REPUL>
0

>  <SCORE.INTRA.REPUL.0>
0

>  <SCORE.INTRA.SOLV>
0

>  <SCORE.INTRA.SOLV.lig_0>
-48.1583

>  <SCORE.INTRA.VDW>
0

>  <SCORE.INTRA.VDW.0>
0

>  <SCORE.INTRA.norm>
0

>  <SCORE.RESTR>
0

>  <SCORE.RESTR.CAVITY>
0

>  <SCORE.RESTR.norm>
0

>  <SCORE.SYSTEM>
0

>  <SCORE.SYSTEM.CONST>
0

>  <SCORE.SYSTEM.DIHEDRAL>
0

>  <SCORE.SYSTEM.SOLV>
0

>  <SCORE.SYSTEM.norm>
0

>  <SCORE.heavy>
12

>  <SCORE.norm>
-1.25583

>  <RMSD>
3.039

$$$$
ligand
 OpenBabel11021811503D
libRbt.so/2013.1/901 2013/11/27
 12 13  0  0  0  0  0  0  0  0999 V2000
    4.7097   15.4102    3.9299 C   0  0  0  0  0  0  0  0  0  0  0  0
    6.0456   17.0472    2.9447 C   0  0  0  0  0  0  0  0  0  0  0  0
    4.0462   14.2628    3.8206 N   0  0  0  0  0  0  0  0  0  0  0  0
    6.6851   17.5823    1.8989 N   0  0  0  0  0  0  0  0  0  0  0  0
    5.3507   15.9059    2.8489 N   0  0  0  0  0  0  0  0  0  0  0  0
    4.7551   16.0458    5.1218 N   0  0  0  0  0  0  0  0  0  0  0  0
    6.8426   19.5975    5.4998 N   0  0  0  0  0  0  0  0  0  0  0  0
    6.1690   19.0494    6.6023 C   0  0  0  0  0  0  0  0  0  0  0  0
    5.4498   17.8396    6.4616 N   0  0  0  0  0  0  0  0  0  0  0  0
    5.4361   17.2098    5.2669 C   0  0  0  0  0  0  0  0  0  0  0  0
    6.1117   17.7369    4.1616 C   0  0  0  0  0  0  0  0  0  0  0  0
    6.8218   18.9323    4.2579 C   0  0  0  0  0  0  0  0  0  0  0  0
  1  3  1  0  0  0  0
  1  5  1  0  0  0  0
  1  6  2  0  0  0  0
  2  5  2  0  0  0  0
  2 11  1  0  0  0  0
  2  4  1  0  0  0  0
  6 10  1  0  0  0  0
  7  8  2  0  0  0  0
  7 12  1  0  0  0  0
  8  9  1  0  0  0  0
  9 10  2  0  0  0  0
 10 11  1  0  0  0  0
 11 12  2  0  0  0  0
M  END
>  <CHROM.1>
5.68812841,17.19175545,4.39156111,2.24296089,-0.96448533,-2.02688050

>  <Name>
ligand

>  <RI>
0

>  <Rbt.Current_Directory>
/home/itssahil/PROJECTS/Mol_Feturizer/New_Systems/rnas/4LX5

>  <Rbt.Executable>
rbdock ($Id: //depot/dev/client3/rdock/2013.1/src/exe/rbdock.cxx#4 $)

>  <Rbt.Library>
libRbt.so (2013.1, Build901 2013/11/27)

>  <Rbt.Parameter_File>
/export/apps/rDock/src/rDock_2013.1_src/data/scripts/dock_solv.prm

>  <Rbt.Receptor>
prm/blind_docking_60.prm

>  <SCORE>
-15.0199

>  <SCORE.INTER>
-15.0199

>  <SCORE.INTER.CONST>
1

>  <SCORE.INTER.POLAR>
0

>  <SCORE.INTER.ROT>
0

>  <SCORE.INTER.SOLV>
15.778

>  <SCORE.INTER.VDW>
-18.8726

>  <SCORE.INTER.norm>
-1.25166

>  <SCORE.INTRA>
0

>  <SCORE.INTRA.DIHEDRAL>
0

>  <SCORE.INTRA.DIHEDRAL.0>
0

>  <SCORE.INTRA.POLAR>
0

>  <SCORE.INTRA.POLAR.0>
0

>  <SCORE.INTRA.REPUL>
0

>  <SCORE.INTRA.REPUL.0>
0

>  <SCORE.INTRA.SOLV>
0

>  <SCORE.INTRA.SOLV.lig_0>
-48.1583

>  <SCORE.INTRA.VDW>
0

>  <SCORE.INTRA.VDW.0>
0

>  <SCORE.INTRA.norm>
0

>  <SCORE.RESTR>
0

>  <SCORE.RESTR.CAVITY>
0

>  <SCORE.RESTR.norm>
0

>  <SCORE.SYSTEM>
0

>  <SCORE.SYSTEM.CONST>
0

>  <SCORE.SYSTEM.DIHEDRAL>
0

>  <SCORE.SYSTEM.SOLV>
0

>  <SCORE.SYSTEM.norm>
0

>  <SCORE.heavy>
12

>  <SCORE.norm>
-1.25166

>  <RMSD>
3.040

$$$$
ligand
 OpenBabel11021811503D
libRbt.so/2013.1/901 2013/11/27
 12 13  0  0  0  0  0  0  0  0999 V2000
    4.7110   15.4171    3.9327 C   0  0  0  0  0  0  0  0  0  0  0  0
    6.0494   17.0487    2.9420 C   0  0  0  0  0  0  0  0  0  0  0  0
    4.0446   14.2709    3.8269 N   0  0  0  0  0  0  0  0  0  0  0  0
    6.6886   17.5800    1.8941 N   0  0  0  0  0  0  0  0  0  0  0  0
    5.3516   15.9088    2.8497 N   0  0  0  0  0  0  0  0  0  0  0  0
    4.7596   16.0551    5.1232 N   0  0  0  0  0  0  0  0  0  0  0  0
    6.8561   19.6026    5.4904 N   0  0  0  0  0  0  0  0  0  0  0  0
    6.1828   19.0585    6.5950 C   0  0  0  0  0  0  0  0  0  0  0  0
    5.4606   17.8501    6.4580 N   0  0  0  0  0  0  0  0  0  0  0  0
    5.4436   17.2178    5.2647 C   0  0  0  0  0  0  0  0  0  0  0  0
    6.1189   17.7409    4.1573 C   0  0  0  0  0  0  0  0  0  0  0  0
    6.8319   18.9348    4.2500 C   0  0  0  0  0  0  0  0  0  0  0  0
  1  3  1  0  0  0  0
  1  5  1  0  0  0  0
  1  6  2  0  0  0  0
  2  5  2  0  0  0  0
  2 11  1  0  0  0  0
  2  4  1  0  0  0  0
  6 10  1  0  0  0  0
  7  8  2  0  0  0  0
  7 12  1  0  0  0  0
  8  9  1  0  0  0  0
  9 10  2  0  0  0  0
 10 11  1  0  0  0  0
 11 12  2  0  0  0  0
M  END
>  <CHROM.1>
5.69430805,17.19723822,4.38907259,2.24708629,-0.96298619,-2.02566948

>  <Name>
ligand

>  <RI>
0

>  <Rbt.Current_Directory>
/home/itssahil/PROJECTS/Mol_Feturizer/New_Systems/rnas/4LX5

>  <Rbt.Executable>
rbdock ($Id: //depot/dev/client3/rdock/2013.1/src/exe/rbdock.cxx#4 $)

>  <Rbt.Library>
libRbt.so (2013.1, Build901 2013/11/27)

>  <Rbt.Parameter_File>
/export/apps/rDock/src/rDock_2013.1_src/data/scripts/dock_solv.prm

>  <Rbt.Receptor>
prm/pocket_docking_5.prm

>  <SCORE>
-15.0176

>  <SCORE.INTER>
-15.0176

>  <SCORE.INTER.CONST>
1

>  <SCORE.INTER.POLAR>
0

>  <SCORE.INTER.ROT>
0

>  <SCORE.INTER.SOLV>
15.782

>  <SCORE.INTER.VDW>
-18.8724

>  <SCORE.INTER.norm>
-1.25146

>  <SCORE.INTRA>
0

>  <SCORE.INTRA.DIHEDRAL>
0

>  <SCORE.INTRA.DIHEDRAL.0>
0

>  <SCORE.INTRA.POLAR>
0

>  <SCORE.INTRA.POLAR.0>
0

>  <SCORE.INTRA.REPUL>
0

>  <SCORE.INTRA.REPUL.0>
0

>  <SCORE.INTRA.SOLV>
0

>  <SCORE.INTRA.SOLV.lig_0>
-48.1583

>  <SCORE.INTRA.VDW>
0

>  <SCORE.INTRA.VDW.0>
0

>  <SCORE.INTRA.norm>
0

>  <SCORE.RESTR>
0

>  <SCORE.RESTR.CAVITY>
0

>  <SCORE.RESTR.norm>
0

>  <SCORE.SYSTEM>
0

>  <SCORE.SYSTEM.CONST>
0

>  <SCORE.SYSTEM.DIHEDRAL>
0

>  <SCORE.SYSTEM.SOLV>
0

>  <SCORE.SYSTEM.norm>
0

>  <SCORE.heavy>
12

>  <SCORE.norm>
-1.25146

>  <RMSD>
3.040

$$$$
ligand
 OpenBabel11021811503D
libRbt.so/2013.1/901 2013/11/27
 12 13  0  0  0  0  0  0  0  0999 V2000
    4.7146   15.4103    3.9323 C   0  0  0  0  0  0  0  0  0  0  0  0
    6.0457   17.0470    2.9401 C   0  0  0  0  0  0  0  0  0  0  0  0
    4.0518   14.2621    3.8270 N   0  0  0  0  0  0  0  0  0  0  0  0
    6.6811   17.5811    1.8913 N   0  0  0  0  0  0  0  0  0  0  0  0
    5.3515   15.9049    2.8483 N   0  0  0  0  0  0  0  0  0  0  0  0
    4.7634   16.0477    5.1231 N   0  0  0  0  0  0  0  0  0  0  0  0
    6.8491   19.6018    5.4887 N   0  0  0  0  0  0  0  0  0  0  0  0
    6.1798   19.0547    6.5943 C   0  0  0  0  0  0  0  0  0  0  0  0
    5.4612   17.8441    6.4578 N   0  0  0  0  0  0  0  0  0  0  0  0
    5.4440   17.2125    5.2641 C   0  0  0  0  0  0  0  0  0  0  0  0
    6.1153   17.7386    4.1557 C   0  0  0  0  0  0  0  0  0  0  0  0
    6.8246   18.9347    4.2479 C   0  0  0  0  0  0  0  0  0  0  0  0
  1  3  1  0  0  0  0
  1  5  1  0  0  0  0
  1  6  2  0  0  0  0
  2  5  2  0  0  0  0
  2 11  1  0  0  0  0
  2  4  1  0  0  0  0
  6 10  1  0  0  0  0
  7  8  2  0  0  0  0
  7 12  1  0  0  0  0
  8  9  1  0  0  0  0
  9 10  2  0  0  0  0
 10 11  1  0  0  0  0
 11 12  2  0  0  0  0
M  END
>  <CHROM.1>
5.69299345,17.19338285,4.38796668,2.24766457,-0.96678871,-2.02449535

>  <Name>
ligand

>  <RI>
0

>  <Rbt.Current_Directory>
/home/itssahil/PROJECTS/Mol_Feturizer/New_Systems/rnas/4LX5

>  <Rbt.Executable>
rbdock ($Id: //depot/dev/client3/rdock/2013.1/src/exe/rbdock.cxx#4 $)

>  <Rbt.Library>
libRbt.so (2013.1, Build901 2013/11/27)

>  <Rbt.Parameter_File>
/export/apps/rDock/src/rDock_2013.1_src/data/scripts/dock_solv.prm

>  <Rbt.Receptor>
prm/pocket_docking_6.prm

>  <SCORE>
-15.0212

>  <SCORE.INTER>
-15.0212

>  <SCORE.INTER.CONST>
1

>  <SCORE.INTER.POLAR>
0

>  <SCORE.INTER.ROT>
0

>  <SCORE.INTER.SOLV>
15.8117

>  <SCORE.INTER.VDW>
-18.8847

>  <SCORE.INTER.norm>
-1.25177

>  <SCORE.INTRA>
0

>  <SCORE.INTRA.DIHEDRAL>
0

>  <SCORE.INTRA.DIHEDRAL.0>
0

>  <SCORE.INTRA.POLAR>
0

>  <SCORE.INTRA.POLAR.0>
0

>  <SCORE.INTRA.REPUL>
0

>  <SCORE.INTRA.REPUL.0>
0

>  <SCORE.INTRA.SOLV>
0

>  <SCORE.INTRA.SOLV.lig_0>
-48.1583

>  <SCORE.INTRA.VDW>
0

>  <SCORE.INTRA.VDW.0>
0

>  <SCORE.INTRA.norm>
0

>  <SCORE.RESTR>
0

>  <SCORE.RESTR.CAVITY>
0

>  <SCORE.RESTR.norm>
0

>  <SCORE.SYSTEM>
0

>  <SCORE.SYSTEM.CONST>
0

>  <SCORE.SYSTEM.DIHEDRAL>
0

>  <SCORE.SYSTEM.SOLV>
0

>  <SCORE.SYSTEM.norm>
0

>  <SCORE.heavy>
12

>  <SCORE.norm>
-1.25177

>  <RMSD>
3.040

$$$$
ligand
 OpenBabel11021811503D
libRbt.so/2013.1/901 2013/11/27
 12 13  0  0  0  0  0  0  0  0999 V2000
    4.7119   15.4144    3.9363 C   0  0  0  0  0  0  0  0  0  0  0  0
    6.0459   17.0466    2.9406 C   0  0  0  0  0  0  0  0  0  0  0  0
    4.0447   14.2685    3.8326 N   0  0  0  0  0  0  0  0  0  0  0  0
    6.6801   17.5788    1.8901 N   0  0  0  0  0  0  0  0  0  0  0  0
    5.3474   15.9070    2.8506 N   0  0  0  0  0  0  0  0  0  0  0  0
    4.7665   16.0513    5.1271 N   0  0  0  0  0  0  0  0  0  0  0  0
    6.8657   19.5979    5.4875 N   0  0  0  0  0  0  0  0  0  0  0  0
    6.1977   19.0529    6.5949 C   0  0  0  0  0  0  0  0  0  0  0  0
    5.4745   17.8448    6.4603 N   0  0  0  0  0  0  0  0  0  0  0  0
    5.4515   17.2137    5.2665 C   0  0  0  0  0  0  0  0  0  0  0  0
    6.1215   17.7377    4.1562 C   0  0  0  0  0  0  0  0  0  0  0  0
    6.8353   18.9313    4.2466 C   0  0  0  0  0  0  0  0  0  0  0  0
  1  3  1  0  0  0  0
  1  5  1  0  0  0  0
  1  6  2  0  0  0  0
  2  5  2  0  0  0  0
  2 11  1  0  0  0  0
  2  4  1  0  0  0  0
  6 10  1  0  0  0  0
  7  8  2  0  0  0  0
  7 12  1  0  0  0  0
  8  9  1  0  0  0  0
  9 10  2  0  0  0  0
 10 11  1  0  0  0  0
 11 12  2  0  0  0  0
M  END
>  <CHROM.1>
5.69792952,17.19388328,4.38956892,2.25499508,-0.96488634,-2.01819511

>  <Name>
ligand

>  <RI>
0

>  <Rbt.Current_Directory>
/home/itssahil/PROJECTS/Mol_Feturizer/New_Systems/rnas/4LX5

>  <Rbt.Executable>
rbdock ($Id: //depot/dev/client3/rdock/2013.1/src/exe/rbdock.cxx#4 $)

>  <Rbt.Library>
libRbt.so (2013.1, Build901 2013/11/27)

>  <Rbt.Parameter_File>
/export/apps/rDock/src/rDock_2013.1_src/data/scripts/dock_solv.prm

>  <Rbt.Receptor>
prm/pocket_docking_7.prm

>  <SCORE>
-15.0173

>  <SCORE.INTER>
-15.0173

>  <SCORE.INTER.CONST>
1

>  <SCORE.INTER.POLAR>
0

>  <SCORE.INTER.ROT>
0

>  <SCORE.INTER.SOLV>
15.7771

>  <SCORE.INTER.VDW>
-18.8706

>  <SCORE.INTER.norm>
-1.25144

>  <SCORE.INTRA>
0

>  <SCORE.INTRA.DIHEDRAL>
0

>  <SCORE.INTRA.DIHEDRAL.0>
0

>  <SCORE.INTRA.POLAR>
0

>  <SCORE.INTRA.POLAR.0>
0

>  <SCORE.INTRA.REPUL>
0

>  <SCORE.INTRA.REPUL.0>
0

>  <SCORE.INTRA.SOLV>
0

>  <SCORE.INTRA.SOLV.lig_0>
-48.1583

>  <SCORE.INTRA.VDW>
0

>  <SCORE.INTRA.VDW.0>
0

>  <SCORE.INTRA.norm>
0

>  <SCORE.RESTR>
0

>  <SCORE.RESTR.CAVITY>
0

>  <SCORE.RESTR.norm>
0

>  <SCORE.SYSTEM>
0

>  <SCORE.SYSTEM.CONST>
0

>  <SCORE.SYSTEM.DIHEDRAL>
0

>  <SCORE.SYSTEM.SOLV>
0

>  <SCORE.SYSTEM.norm>
0

>  <SCORE.heavy>
12

>  <SCORE.norm>
-1.25144

>  <RMSD>
3.040

$$$$
ligand
 OpenBabel11021811503D
libRbt.so/2013.1/901 2013/11/27
 12 13  0  0  0  0  0  0  0  0999 V2000
    4.7708   15.4575    3.9492 C   0  0  0  0  0  0  0  0  0  0  0  0
    6.1019   17.1065    2.9777 C   0  0  0  0  0  0  0  0  0  0  0  0
    4.1213   14.3026    3.8340 N   0  0  0  0  0  0  0  0  0  0  0  0
    6.7494   17.6460    1.9391 N   0  0  0  0  0  0  0  0  0  0  0  0
    5.4207   15.9575    2.8755 N   0  0  0  0  0  0  0  0  0  0  0  0
    4.7934   16.0963    5.1400 N   0  0  0  0  0  0  0  0  0  0  0  0
    6.8373   19.6713    5.5367 N   0  0  0  0  0  0  0  0  0  0  0  0
    6.1551   19.1186    6.6315 C   0  0  0  0  0  0  0  0  0  0  0  0
    5.4509   17.9007    6.4843 N   0  0  0  0  0  0  0  0  0  0  0  0
    5.4599   17.2680    5.2912 C   0  0  0  0  0  0  0  0  0  0  0  0
    6.1444   17.7998    4.1936 C   0  0  0  0  0  0  0  0  0  0  0  0
    6.8401   19.0030    4.2963 C   0  0  0  0  0  0  0  0  0  0  0  0
  1  3  1  0  0  0  0
  1  5  1  0  0  0  0
  1  6  2  0  0  0  0
  2  5  2  0  0  0  0
  2 11  1  0  0  0  0
  2  4  1  0  0  0  0
  6 10  1  0  0  0  0
  7  8  2  0  0  0  0
  7 12  1  0  0  0  0
  8  9  1  0  0  0  0
  9 10  2  0  0  0  0
 10 11  1  0  0  0  0
 11 12  2  0  0  0  0
M  END
>  <CHROM.1>
5.72368475,17.25060374,4.41930081,2.21352455,-0.96813861,-2.05354853

>  <Name>
ligand

>  <RI>
0

>  <Rbt.Current_Directory>
/home/itssahil/PROJECTS/Mol_Feturizer/New_Systems/rnas/4LX5

>  <Rbt.Executable>
rbdock ($Id: //depot/dev/client3/rdock/2013.1/src/exe/rbdock.cxx#4 $)

>  <Rbt.Library>
libRbt.so (2013.1, Build901 2013/11/27)

>  <Rbt.Parameter_File>
/export/apps/rDock/src/rDock_2013.1_src/data/scripts/dock_solv.prm

>  <Rbt.Receptor>
prm/pocket_docking_7.prm

>  <SCORE>
-15.0638

>  <SCORE.INTER>
-15.0638

>  <SCORE.INTER.CONST>
1

>  <SCORE.INTER.POLAR>
0

>  <SCORE.INTER.ROT>
0

>  <SCORE.INTER.SOLV>
16.1816

>  <SCORE.INTER.VDW>
-19.0364

>  <SCORE.INTER.norm>
-1.25531

>  <SCORE.INTRA>
0

>  <SCORE.INTRA.DIHEDRAL>
0

>  <SCORE.INTRA.DIHEDRAL.0>
0

>  <SCORE.INTRA.POLAR>
0

>  <SCORE.INTRA.POLAR.0>
0

>  <SCORE.INTRA.REPUL>
0

>  <SCORE.INTRA.REPUL.0>
0

>  <SCORE.INTRA.SOLV>
0

>  <SCORE.INTRA.SOLV.lig_0>
-48.1583

>  <SCORE.INTRA.VDW>
0

>  <SCORE.INTRA.VDW.0>
0

>  <SCORE.INTRA.norm>
0

>  <SCORE.RESTR>
0

>  <SCORE.RESTR.CAVITY>
0

>  <SCORE.RESTR.norm>
0

>  <SCORE.SYSTEM>
0

>  <SCORE.SYSTEM.CONST>
0

>  <SCORE.SYSTEM.DIHEDRAL>
0

>  <SCORE.SYSTEM.SOLV>
0

>  <SCORE.SYSTEM.norm>
0

>  <SCORE.heavy>
12

>  <SCORE.norm>
-1.25531

>  <RMSD>
3.040

$$$$
ligand
 OpenBabel11021811503D
libRbt.so/2013.1/901 2013/11/27
 12 13  0  0  0  0  0  0  0  0999 V2000
    4.6889   15.4002    3.9280 C   0  0  0  0  0  0  0  0  0  0  0  0
    6.0633   16.9943    2.9255 C   0  0  0  0  0  0  0  0  0  0  0  0
    4.0034   14.2645    3.8327 N   0  0  0  0  0  0  0  0  0  0  0  0
    6.7196   17.4997    1.8754 N   0  0  0  0  0  0  0  0  0  0  0  0
    5.3463   15.8656    2.8434 N   0  0  0  0  0  0  0  0  0  0  0  0
    4.7397   16.0537    5.1100 N   0  0  0  0  0  0  0  0  0  0  0  0
    6.8954   19.5688    5.4448 N   0  0  0  0  0  0  0  0  0  0  0  0
    6.2043   19.0519    6.5515 C   0  0  0  0  0  0  0  0  0  0  0  0
    5.4620   17.8545    6.4255 N   0  0  0  0  0  0  0  0  0  0  0  0
    5.4430   17.2061    5.2409 C   0  0  0  0  0  0  0  0  0  0  0  0
    6.1357   17.7020    4.1317 C   0  0  0  0  0  0  0  0  0  0  0  0
    6.8688   18.8844    4.2135 C   0  0  0  0  0  0  0  0  0  0  0  0
  1  3  1  0  0  0  0
  1  5  1  0  0  0  0
  1  6  2  0  0  0  0
  2  5  2  0  0  0  0
  2 11  1  0  0  0  0
  2  4  1  0  0  0  0
  6 10  1  0  0  0  0
  7  8  2  0  0  0  0
  7 12  1  0  0  0  0
  8  9  1  0  0  0  0
  9 10  2  0  0  0  0
 10 11  1  0  0  0  0
 11 12  2  0  0  0  0
M  END
>  <CHROM.1>
5.69989543,17.16905368,4.36757894,2.24863548,-0.94388151,-2.03819922

>  <Name>
ligand

>  <RI>
0

>  <Rbt.Current_Directory>
/home/itssahil/PROJECTS/Mol_Feturizer/New_Systems/rnas/4LX5

>  <Rbt.Executable>
rbdock ($Id: //depot/dev/client3/rdock/2013.1/src/exe/rbdock.cxx#4 $)

>  <Rbt.Library>
libRbt.so (2013.1, Build901 2013/11/27)

>  <Rbt.Parameter_File>
/export/apps/rDock/src/rDock_2013.1_src/data/scripts/dock_solv.prm

>  <Rbt.Receptor>
prm/pocket_docking_7.prm

>  <SCORE>
-15.0019

>  <SCORE.INTER>
-15.0019

>  <SCORE.INTER.CONST>
1

>  <SCORE.INTER.POLAR>
0

>  <SCORE.INTER.ROT>
0

>  <SCORE.INTER.SOLV>
15.6833

>  <SCORE.INTER.VDW>
-18.8291

>  <SCORE.INTER.norm>
-1.25016

>  <SCORE.INTRA>
0

>  <SCORE.INTRA.DIHEDRAL>
0

>  <SCORE.INTRA.DIHEDRAL.0>
0

>  <SCORE.INTRA.POLAR>
0

>  <SCORE.INTRA.POLAR.0>
0

>  <SCORE.INTRA.REPUL>
0

>  <SCORE.INTRA.REPUL.0>
0

>  <SCORE.INTRA.SOLV>
0

>  <SCORE.INTRA.SOLV.lig_0>
-48.1583

>  <SCORE.INTRA.VDW>
0

>  <SCORE.INTRA.VDW.0>
0

>  <SCORE.INTRA.norm>
0

>  <SCORE.RESTR>
0

>  <SCORE.RESTR.CAVITY>
0

>  <SCORE.RESTR.norm>
0

>  <SCORE.SYSTEM>
0

>  <SCORE.SYSTEM.CONST>
0

>  <SCORE.SYSTEM.DIHEDRAL>
0

>  <SCORE.SYSTEM.SOLV>
0

>  <SCORE.SYSTEM.norm>
0

>  <SCORE.heavy>
12

>  <SCORE.norm>
-1.25016

>  <RMSD>
3.040

$$$$
ligand
 OpenBabel11021811503D
libRbt.so/2013.1/901 2013/11/27
 12 13  0  0  0  0  0  0  0  0999 V2000
    4.5767   15.4070    3.8690 C   0  0  0  0  0  0  0  0  0  0  0  0
    5.9570   17.0246    2.9137 C   0  0  0  0  0  0  0  0  0  0  0  0
    3.8689   14.2890    3.7345 N   0  0  0  0  0  0  0  0  0  0  0  0
    6.5993   17.5695    1.8746 N   0  0  0  0  0  0  0  0  0  0  0  0
    5.2184   15.9135    2.7934 N   0  0  0  0  0  0  0  0  0  0  0  0
    4.6650   16.0012    5.0796 N   0  0  0  0  0  0  0  0  0  0  0  0
    6.8901   19.4590    5.5349 N   0  0  0  0  0  0  0  0  0  0  0  0
    6.2142   18.9006    6.6307 C   0  0  0  0  0  0  0  0  0  0  0  0
    5.4480   17.7234    6.4639 N   0  0  0  0  0  0  0  0  0  0  0  0
    5.3915   17.1339    5.2501 C   0  0  0  0  0  0  0  0  0  0  0  0
    6.0685   17.6714    4.1507 C   0  0  0  0  0  0  0  0  0  0  0  0
    6.8243   18.8360    4.2729 C   0  0  0  0  0  0  0  0  0  0  0  0
  1  3  1  0  0  0  0
  1  5  1  0  0  0  0
  1  6  2  0  0  0  0
  2  5  2  0  0  0  0
  2 11  1  0  0  0  0
  2  4  1  0  0  0  0
  6 10  1  0  0  0  0
  7  8  2  0  0  0  0
  7 12  1  0  0  0  0
  8  9  1  0  0  0  0
  9 10  2  0  0  0  0
 10 11  1  0  0  0  0
 11 12  2  0  0  0  0
M  END
>  <CHROM.1>
5.62850979,17.13507938,4.37038938,2.29526923,-0.93722819,-1.95198514

>  <Name>
ligand

>  <RI>
0

>  <Rbt.Current_Directory>
/home/itssahil/PROJECTS/Mol_Feturizer/New_Systems/rnas/4LX5

>  <Rbt.Executable>
rbdock ($Id: //depot/dev/client3/rdock/2013.1/src/exe/rbdock.cxx#4 $)

>  <Rbt.Library>
libRbt.so (2013.1, Build901 2013/11/27)

>  <Rbt.Parameter_File>
/export/apps/rDock/src/rDock_2013.1_src/data/scripts/dock_solv.prm

>  <Rbt.Receptor>
prm/blind_docking_40.prm

>  <SCORE>
-14.7687

>  <SCORE.INTER>
-14.7687

>  <SCORE.INTER.CONST>
1

>  <SCORE.INTER.POLAR>
0

>  <SCORE.INTER.ROT>
0

>  <SCORE.INTER.SOLV>
14.9209

>  <SCORE.INTER.VDW>
-18.4194

>  <SCORE.INTER.norm>
-1.23072

>  <SCORE.INTRA>
0

>  <SCORE.INTRA.DIHEDRAL>
0

>  <SCORE.INTRA.DIHEDRAL.0>
0

>  <SCORE.INTRA.POLAR>
0

>  <SCORE.INTRA.POLAR.0>
0

>  <SCORE.INTRA.REPUL>
0

>  <SCORE.INTRA.REPUL.0>
0

>  <SCORE.INTRA.SOLV>
0

>  <SCORE.INTRA.SOLV.lig_0>
-48.1583

>  <SCORE.INTRA.VDW>
0

>  <SCORE.INTRA.VDW.0>
0

>  <SCORE.INTRA.norm>
0

>  <SCORE.RESTR>
0

>  <SCORE.RESTR.CAVITY>
0

>  <SCORE.RESTR.norm>
0

>  <SCORE.SYSTEM>
0

>  <SCORE.SYSTEM.CONST>
0

>  <SCORE.SYSTEM.DIHEDRAL>
0

>  <SCORE.SYSTEM.SOLV>
0

>  <SCORE.SYSTEM.norm>
0

>  <SCORE.heavy>
12

>  <SCORE.norm>
-1.23072

>  <RMSD>
3.041

$$$$
ligand
 OpenBabel11021811503D
libRbt.so/2013.1/901 2013/11/27
 12 13  0  0  0  0  0  0  0  0999 V2000
    4.7000   15.4078    3.9272 C   0  0  0  0  0  0  0  0  0  0  0  0
    6.0461   17.0394    2.9471 C   0  0  0  0  0  0  0  0  0  0  0  0
    4.0332   14.2624    3.8157 N   0  0  0  0  0  0  0  0  0  0  0  0
    6.6924   17.5714    1.9039 N   0  0  0  0  0  0  0  0  0  0  0  0
    5.3479   15.9003    2.8489 N   0  0  0  0  0  0  0  0  0  0  0  0
    4.7416   16.0443    5.1188 N   0  0  0  0  0  0  0  0  0  0  0  0
    6.8390   19.5894    5.5037 N   0  0  0  0  0  0  0  0  0  0  0  0
    6.1583   19.0446    6.6034 C   0  0  0  0  0  0  0  0  0  0  0  0
    5.4358   17.8370    6.4603 N   0  0  0  0  0  0  0  0  0  0  0  0
    5.4258   17.2062    5.2661 C   0  0  0  0  0  0  0  0  0  0  0  0
    6.1085   17.7301    4.1636 C   0  0  0  0  0  0  0  0  0  0  0  0
    6.8220   18.9231    4.2623 C   0  0  0  0  0  0  0  0  0  0  0  0
  1  3  1  0  0  0  0
  1  5  1  0  0  0  0
  1  6  2  0  0  0  0
  2  5  2  0  0  0  0
  2 11  1  0  0  0  0
  2  4  1  0  0  0  0
  6 10  1  0  0  0  0
  7  8  2  0  0  0  0
  7 12  1  0  0  0  0
  8  9  1  0  0  0  0
  9 10  2  0  0  0  0
 10 11  1  0  0  0  0
 11 12  2  0  0  0  0
M  END
>  <CHROM.1>
5.68201247,17.18648458,4.39204122,2.23789286,-0.95937248,-2.03194746

>  <Name>
ligand

>  <RI>
0

>  <Rbt.Current_Directory>
/home/itssahil/PROJECTS/Mol_Feturizer/New_Systems/rnas/4LX5

>  <Rbt.Executable>
rbdock ($Id: //depot/dev/client3/rdock/2013.1/src/exe/rbdock.cxx#4 $)

>  <Rbt.Library>
libRbt.so (2013.1, Build901 2013/11/27)

>  <Rbt.Parameter_File>
/export/apps/rDock/src/rDock_2013.1_src/data/scripts/dock_solv.prm

>  <Rbt.Receptor>
prm/blind_docking_80.prm

>  <SCORE>
-15.0192

>  <SCORE.INTER>
-15.0192

>  <SCORE.INTER.CONST>
1

>  <SCORE.INTER.POLAR>
0

>  <SCORE.INTER.ROT>
0

>  <SCORE.INTER.SOLV>
15.7167

>  <SCORE.INTER.VDW>
-18.8517

>  <SCORE.INTER.norm>
-1.2516

>  <SCORE.INTRA>
0

>  <SCORE.INTRA.DIHEDRAL>
0

>  <SCORE.INTRA.DIHEDRAL.0>
0

>  <SCORE.INTRA.POLAR>
0

>  <SCORE.INTRA.POLAR.0>
0

>  <SCORE.INTRA.REPUL>
0

>  <SCORE.INTRA.REPUL.0>
0

>  <SCORE.INTRA.SOLV>
0

>  <SCORE.INTRA.SOLV.lig_0>
-48.1583

>  <SCORE.INTRA.VDW>
0

>  <SCORE.INTRA.VDW.0>
0

>  <SCORE.INTRA.norm>
0

>  <SCORE.RESTR>
0

>  <SCORE.RESTR.CAVITY>
0

>  <SCORE.RESTR.norm>
0

>  <SCORE.SYSTEM>
0

>  <SCORE.SYSTEM.CONST>
0

>  <SCORE.SYSTEM.DIHEDRAL>
0

>  <SCORE.SYSTEM.SOLV>
0

>  <SCORE.SYSTEM.norm>
0

>  <SCORE.heavy>
12

>  <SCORE.norm>
-1.2516

>  <RMSD>
3.041

$$$$
ligand
 OpenBabel11021811503D
libRbt.so/2013.1/901 2013/11/27
 12 13  0  0  0  0  0  0  0  0999 V2000
    4.7057   15.4153    3.9351 C   0  0  0  0  0  0  0  0  0  0  0  0
    6.0463   17.0441    2.9429 C   0  0  0  0  0  0  0  0  0  0  0  0
    4.0363   14.2708    3.8299 N   0  0  0  0  0  0  0  0  0  0  0  0
    6.6850   17.5744    1.8941 N   0  0  0  0  0  0  0  0  0  0  0  0
    5.3456   15.9060    2.8512 N   0  0  0  0  0  0  0  0  0  0  0  0
    4.7580   16.0525    5.1259 N   0  0  0  0  0  0  0  0  0  0  0  0
    6.8640   19.5946    5.4912 N   0  0  0  0  0  0  0  0  0  0  0  0
    6.1914   19.0516    6.5968 C   0  0  0  0  0  0  0  0  0  0  0  0
    5.4659   17.8451    6.4604 N   0  0  0  0  0  0  0  0  0  0  0  0
    5.4452   17.2135    5.2668 C   0  0  0  0  0  0  0  0  0  0  0  0
    6.1198   17.7355    4.1584 C   0  0  0  0  0  0  0  0  0  0  0  0
    6.8359   18.9275    4.2505 C   0  0  0  0  0  0  0  0  0  0  0  0
  1  3  1  0  0  0  0
  1  5  1  0  0  0  0
  1  6  2  0  0  0  0
  2  5  2  0  0  0  0
  2 11  1  0  0  0  0
  2  4  1  0  0  0  0
  6 10  1  0  0  0  0
  7  8  2  0  0  0  0
  7 12  1  0  0  0  0
  8  9  1  0  0  0  0
  9 10  2  0  0  0  0
 10 11  1  0  0  0  0
 11 12  2  0  0  0  0
M  END
>  <CHROM.1>
5.69424744,17.19275227,4.39068980,2.25181378,-0.96154463,-2.02124690

>  <Name>
ligand

>  <RI>
0

>  <Rbt.Current_Directory>
/home/itssahil/PROJECTS/Mol_Feturizer/New_Systems/rnas/4LX5

>  <Rbt.Executable>
rbdock ($Id: //depot/dev/client3/rdock/2013.1/src/exe/rbdock.cxx#4 $)

>  <Rbt.Library>
libRbt.so (2013.1, Build901 2013/11/27)

>  <Rbt.Parameter_File>
/export/apps/rDock/src/rDock_2013.1_src/data/scripts/dock_solv.prm

>  <Rbt.Receptor>
prm/blind_docking_80.prm

>  <SCORE>
-15.0191

>  <SCORE.INTER>
-15.0191

>  <SCORE.INTER.CONST>
1

>  <SCORE.INTER.POLAR>
0

>  <SCORE.INTER.ROT>
0

>  <SCORE.INTER.SOLV>
15.7366

>  <SCORE.INTER.VDW>
-18.8583

>  <SCORE.INTER.norm>
-1.25159

>  <SCORE.INTRA>
0

>  <SCORE.INTRA.DIHEDRAL>
0

>  <SCORE.INTRA.DIHEDRAL.0>
0

>  <SCORE.INTRA.POLAR>
0

>  <SCORE.INTRA.POLAR.0>
0

>  <SCORE.INTRA.REPUL>
0

>  <SCORE.INTRA.REPUL.0>
0

>  <SCORE.INTRA.SOLV>
0

>  <SCORE.INTRA.SOLV.lig_0>
-48.1583

>  <SCORE.INTRA.VDW>
0

>  <SCORE.INTRA.VDW.0>
0

>  <SCORE.INTRA.norm>
0

>  <SCORE.RESTR>
0

>  <SCORE.RESTR.CAVITY>
0

>  <SCORE.RESTR.norm>
0

>  <SCORE.SYSTEM>
0

>  <SCORE.SYSTEM.CONST>
0

>  <SCORE.SYSTEM.DIHEDRAL>
0

>  <SCORE.SYSTEM.SOLV>
0

>  <SCORE.SYSTEM.norm>
0

>  <SCORE.heavy>
12

>  <SCORE.norm>
-1.25159

>  <RMSD>
3.041

$$$$
ligand
 OpenBabel11021811503D
libRbt.so/2013.1/901 2013/11/27
 12 13  0  0  0  0  0  0  0  0999 V2000
    4.6863   15.4830    3.9372 C   0  0  0  0  0  0  0  0  0  0  0  0
    6.0706   17.0787    2.9509 C   0  0  0  0  0  0  0  0  0  0  0  0
    3.9991   14.3492    3.8323 N   0  0  0  0  0  0  0  0  0  0  0  0
    6.7350   17.5875    1.9075 N   0  0  0  0  0  0  0  0  0  0  0  0
    5.3518   15.9519    2.8590 N   0  0  0  0  0  0  0  0  0  0  0  0
    4.7306   16.1312    5.1223 N   0  0  0  0  0  0  0  0  0  0  0  0
    6.8913   19.6402    5.4872 N   0  0  0  0  0  0  0  0  0  0  0  0
    6.1919   19.1198    6.5870 C   0  0  0  0  0  0  0  0  0  0  0  0
    5.4479   17.9246    6.4507 N   0  0  0  0  0  0  0  0  0  0  0  0
    5.4354   17.2815    5.2631 C   0  0  0  0  0  0  0  0  0  0  0  0
    6.1365   17.7808    4.1607 C   0  0  0  0  0  0  0  0  0  0  0  0
    6.8715   18.9613    4.2527 C   0  0  0  0  0  0  0  0  0  0  0  0
  1  3  1  0  0  0  0
  1  5  1  0  0  0  0
  1  6  2  0  0  0  0
  2  5  2  0  0  0  0
  2 11  1  0  0  0  0
  2  4  1  0  0  0  0
  6 10  1  0  0  0  0
  7  8  2  0  0  0  0
  7 12  1  0  0  0  0
  8  9  1  0  0  0  0
  9 10  2  0  0  0  0
 10 11  1  0  0  0  0
 11 12  2  0  0  0  0
M  END
>  <CHROM.1>
5.69803711,17.24779522,4.39134077,2.24019728,-0.93902323,-2.04054735

>  <Name>
ligand

>  <RI>
0

>  <Rbt.Current_Directory>
/home/itssahil/PROJECTS/Mol_Feturizer/New_Systems/rnas/4LX5

>  <Rbt.Executable>
rbdock ($Id: //depot/dev/client3/rdock/2013.1/src/exe/rbdock.cxx#4 $)

>  <Rbt.Library>
libRbt.so (2013.1, Build901 2013/11/27)

>  <Rbt.Parameter_File>
/export/apps/rDock/src/rDock_2013.1_src/data/scripts/dock_solv.prm

>  <Rbt.Receptor>
prm/pocket_docking_3.prm

>  <SCORE>
-15.0597

>  <SCORE.INTER>
-15.0597

>  <SCORE.INTER.CONST>
1

>  <SCORE.INTER.POLAR>
0

>  <SCORE.INTER.ROT>
0

>  <SCORE.INTER.SOLV>
15.5956

>  <SCORE.INTER.VDW>
-18.8383

>  <SCORE.INTER.norm>
-1.25497

>  <SCORE.INTRA>
0

>  <SCORE.INTRA.DIHEDRAL>
0

>  <SCORE.INTRA.DIHEDRAL.0>
0

>  <SCORE.INTRA.POLAR>
0

>  <SCORE.INTRA.POLAR.0>
0

>  <SCORE.INTRA.REPUL>
0

>  <SCORE.INTRA.REPUL.0>
0

>  <SCORE.INTRA.SOLV>
0

>  <SCORE.INTRA.SOLV.lig_0>
-48.1583

>  <SCORE.INTRA.VDW>
0

>  <SCORE.INTRA.VDW.0>
0

>  <SCORE.INTRA.norm>
0

>  <SCORE.RESTR>
0

>  <SCORE.RESTR.CAVITY>
0

>  <SCORE.RESTR.norm>
0

>  <SCORE.SYSTEM>
0

>  <SCORE.SYSTEM.CONST>
0

>  <SCORE.SYSTEM.DIHEDRAL>
0

>  <SCORE.SYSTEM.SOLV>
0

>  <SCORE.SYSTEM.norm>
0

>  <SCORE.heavy>
12

>  <SCORE.norm>
-1.25497

>  <RMSD>
3.041

$$$$
ligand
 OpenBabel11021811503D
libRbt.so/2013.1/901 2013/11/27
 12 13  0  0  0  0  0  0  0  0999 V2000
    4.7039   15.4211    3.9368 C   0  0  0  0  0  0  0  0  0  0  0  0
    6.0459   17.0469    2.9415 C   0  0  0  0  0  0  0  0  0  0  0  0
    4.0334   14.2771    3.8338 N   0  0  0  0  0  0  0  0  0  0  0  0
    6.6849   17.5747    1.8916 N   0  0  0  0  0  0  0  0  0  0  0  0
    5.3441   15.9093    2.8519 N   0  0  0  0  0  0  0  0  0  0  0  0
    4.7570   16.0605    5.1264 N   0  0  0  0  0  0  0  0  0  0  0  0
    6.8663   19.6013    5.4850 N   0  0  0  0  0  0  0  0  0  0  0  0
    6.1933   19.0609    6.5916 C   0  0  0  0  0  0  0  0  0  0  0  0
    5.4667   17.8548    6.4576 N   0  0  0  0  0  0  0  0  0  0  0  0
    5.4453   17.2211    5.2652 C   0  0  0  0  0  0  0  0  0  0  0  0
    6.1201   17.7404    4.1557 C   0  0  0  0  0  0  0  0  0  0  0  0
    6.8374   18.9320    4.2455 C   0  0  0  0  0  0  0  0  0  0  0  0
  1  3  1  0  0  0  0
  1  5  1  0  0  0  0
  1  6  2  0  0  0  0
  2  5  2  0  0  0  0
  2 11  1  0  0  0  0
  2  4  1  0  0  0  0
  6 10  1  0  0  0  0
  7  8  2  0  0  0  0
  7 12  1  0  0  0  0
  8  9  1  0  0  0  0
  9 10  2  0  0  0  0
 10 11  1  0  0  0  0
 11 12  2  0  0  0  0
M  END
>  <CHROM.1>
5.69416750,17.19852213,4.38902005,2.25275157,-0.96076904,-2.02229339

>  <Name>
ligand

>  <RI>
0

>  <Rbt.Current_Directory>
/home/itssahil/PROJECTS/Mol_Feturizer/New_Systems/rnas/4LX5

>  <Rbt.Executable>
rbdock ($Id: //depot/dev/client3/rdock/2013.1/src/exe/rbdock.cxx#4 $)

>  <Rbt.Library>
libRbt.so (2013.1, Build901 2013/11/27)

>  <Rbt.Parameter_File>
/export/apps/rDock/src/rDock_2013.1_src/data/scripts/dock_solv.prm

>  <Rbt.Receptor>
prm/pocket_docking_4.prm

>  <SCORE>
-15.0178

>  <SCORE.INTER>
-15.0178

>  <SCORE.INTER.CONST>
1

>  <SCORE.INTER.POLAR>
0

>  <SCORE.INTER.ROT>
0

>  <SCORE.INTER.SOLV>
15.7279

>  <SCORE.INTER.VDW>
-18.8545

>  <SCORE.INTER.norm>
-1.25148

>  <SCORE.INTRA>
0

>  <SCORE.INTRA.DIHEDRAL>
0

>  <SCORE.INTRA.DIHEDRAL.0>
0

>  <SCORE.INTRA.POLAR>
0

>  <SCORE.INTRA.POLAR.0>
0

>  <SCORE.INTRA.REPUL>
0

>  <SCORE.INTRA.REPUL.0>
0

>  <SCORE.INTRA.SOLV>
0

>  <SCORE.INTRA.SOLV.lig_0>
-48.1583

>  <SCORE.INTRA.VDW>
0

>  <SCORE.INTRA.VDW.0>
0

>  <SCORE.INTRA.norm>
0

>  <SCORE.RESTR>
0

>  <SCORE.RESTR.CAVITY>
0

>  <SCORE.RESTR.norm>
0

>  <SCORE.SYSTEM>
0

>  <SCORE.SYSTEM.CONST>
0

>  <SCORE.SYSTEM.DIHEDRAL>
0

>  <SCORE.SYSTEM.SOLV>
0

>  <SCORE.SYSTEM.norm>
0

>  <SCORE.heavy>
12

>  <SCORE.norm>
-1.25148

>  <RMSD>
3.041

$$$$
ligand
 OpenBabel11021811503D
libRbt.so/2013.1/901 2013/11/27
 12 13  0  0  0  0  0  0  0  0999 V2000
    4.6836   15.4005    3.9243 C   0  0  0  0  0  0  0  0  0  0  0  0
    6.0661   16.9951    2.9340 C   0  0  0  0  0  0  0  0  0  0  0  0
    3.9969   14.2660    3.8221 N   0  0  0  0  0  0  0  0  0  0  0  0
    6.7293   17.5023    1.8891 N   0  0  0  0  0  0  0  0  0  0  0  0
    5.3479   15.8677    2.8448 N   0  0  0  0  0  0  0  0  0  0  0  0
    4.7284   16.0509    5.1082 N   0  0  0  0  0  0  0  0  0  0  0  0
    6.8872   19.5620    5.4647 N   0  0  0  0  0  0  0  0  0  0  0  0
    6.1889   19.0433    6.5660 C   0  0  0  0  0  0  0  0  0  0  0  0
    5.4456   17.8473    6.4325 N   0  0  0  0  0  0  0  0  0  0  0  0
    5.4326   17.2020    5.2462 C   0  0  0  0  0  0  0  0  0  0  0  0
    6.1325   17.6996    4.1423 C   0  0  0  0  0  0  0  0  0  0  0  0
    6.8668   18.8807    4.2315 C   0  0  0  0  0  0  0  0  0  0  0  0
  1  3  1  0  0  0  0
  1  5  1  0  0  0  0
  1  6  2  0  0  0  0
  2  5  2  0  0  0  0
  2 11  1  0  0  0  0
  2  4  1  0  0  0  0
  6 10  1  0  0  0  0
  7  8  2  0  0  0  0
  7 12  1  0  0  0  0
  8  9  1  0  0  0  0
  9 10  2  0  0  0  0
 10 11  1  0  0  0  0
 11 12  2  0  0  0  0
M  END
>  <CHROM.1>
5.69451141,17.16675479,4.37433920,2.24088673,-0.93992682,-2.04191450

>  <Name>
ligand

>  <RI>
0

>  <Rbt.Current_Directory>
/home/itssahil/PROJECTS/Mol_Feturizer/New_Systems/rnas/4LX5

>  <Rbt.Executable>
rbdock ($Id: //depot/dev/client3/rdock/2013.1/src/exe/rbdock.cxx#4 $)

>  <Rbt.Library>
libRbt.so (2013.1, Build901 2013/11/27)

>  <Rbt.Parameter_File>
/export/apps/rDock/src/rDock_2013.1_src/data/scripts/dock_solv.prm

>  <Rbt.Receptor>
prm/pocket_docking_4.prm

>  <SCORE>
-15.0031

>  <SCORE.INTER>
-15.0031

>  <SCORE.INTER.CONST>
1

>  <SCORE.INTER.POLAR>
0

>  <SCORE.INTER.ROT>
0

>  <SCORE.INTER.SOLV>
15.6461

>  <SCORE.INTER.VDW>
-18.8174

>  <SCORE.INTER.norm>
-1.25026

>  <SCORE.INTRA>
0

>  <SCORE.INTRA.DIHEDRAL>
0

>  <SCORE.INTRA.DIHEDRAL.0>
0

>  <SCORE.INTRA.POLAR>
0

>  <SCORE.INTRA.POLAR.0>
0

>  <SCORE.INTRA.REPUL>
0

>  <SCORE.INTRA.REPUL.0>
0

>  <SCORE.INTRA.SOLV>
0

>  <SCORE.INTRA.SOLV.lig_0>
-48.1583

>  <SCORE.INTRA.VDW>
0

>  <SCORE.INTRA.VDW.0>
0

>  <SCORE.INTRA.norm>
0

>  <SCORE.RESTR>
0

>  <SCORE.RESTR.CAVITY>
0

>  <SCORE.RESTR.norm>
0

>  <SCORE.SYSTEM>
0

>  <SCORE.SYSTEM.CONST>
0

>  <SCORE.SYSTEM.DIHEDRAL>
0

>  <SCORE.SYSTEM.SOLV>
0

>  <SCORE.SYSTEM.norm>
0

>  <SCORE.heavy>
12

>  <SCORE.norm>
-1.25026

>  <RMSD>
3.041

$$$$
ligand
 OpenBabel11021811503D
libRbt.so/2013.1/901 2013/11/27
 12 13  0  0  0  0  0  0  0  0999 V2000
    4.7023   15.4208    3.9369 C   0  0  0  0  0  0  0  0  0  0  0  0
    6.0458   17.0454    2.9417 C   0  0  0  0  0  0  0  0  0  0  0  0
    4.0314   14.2770    3.8340 N   0  0  0  0  0  0  0  0  0  0  0  0
    6.6858   17.5724    1.8920 N   0  0  0  0  0  0  0  0  0  0  0  0
    5.3435   15.9081    2.8522 N   0  0  0  0  0  0  0  0  0  0  0  0
    4.7550   16.0607    5.1262 N   0  0  0  0  0  0  0  0  0  0  0  0
    6.8658   19.6006    5.4846 N   0  0  0  0  0  0  0  0  0  0  0  0
    6.1918   19.0611    6.5910 C   0  0  0  0  0  0  0  0  0  0  0  0
    5.4647   17.8553    6.4570 N   0  0  0  0  0  0  0  0  0  0  0  0
    5.4437   17.2210    5.2649 C   0  0  0  0  0  0  0  0  0  0  0  0
    6.1196   17.7395    4.1556 C   0  0  0  0  0  0  0  0  0  0  0  0
    6.8374   18.9307    4.2454 C   0  0  0  0  0  0  0  0  0  0  0  0
  1  3  1  0  0  0  0
  1  5  1  0  0  0  0
  1  6  2  0  0  0  0
  2  5  2  0  0  0  0
  2 11  1  0  0  0  0
  2  4  1  0  0  0  0
  6 10  1  0  0  0  0
  7  8  2  0  0  0  0
  7 12  1  0  0  0  0
  8  9  1  0  0  0  0
  9 10  2  0  0  0  0
 10 11  1  0  0  0  0
 11 12  2  0  0  0  0
M  END
>  <CHROM.1>
5.69320073,17.19787085,4.38894423,2.25208830,-0.96004227,-2.02331037

>  <Name>
ligand

>  <RI>
0

>  <Rbt.Current_Directory>
/home/itssahil/PROJECTS/Mol_Feturizer/New_Systems/rnas/4LX5

>  <Rbt.Executable>
rbdock ($Id: //depot/dev/client3/rdock/2013.1/src/exe/rbdock.cxx#4 $)

>  <Rbt.Library>
libRbt.so (2013.1, Build901 2013/11/27)

>  <Rbt.Parameter_File>
/export/apps/rDock/src/rDock_2013.1_src/data/scripts/dock_solv.prm

>  <Rbt.Receptor>
prm/pocket_docking_4.prm

>  <SCORE>
-15.0181

>  <SCORE.INTER>
-15.0181

>  <SCORE.INTER.CONST>
1

>  <SCORE.INTER.POLAR>
0

>  <SCORE.INTER.ROT>
0

>  <SCORE.INTER.SOLV>
15.7193

>  <SCORE.INTER.VDW>
-18.8518

>  <SCORE.INTER.norm>
-1.25151

>  <SCORE.INTRA>
0

>  <SCORE.INTRA.DIHEDRAL>
0

>  <SCORE.INTRA.DIHEDRAL.0>
0

>  <SCORE.INTRA.POLAR>
0

>  <SCORE.INTRA.POLAR.0>
0

>  <SCORE.INTRA.REPUL>
0

>  <SCORE.INTRA.REPUL.0>
0

>  <SCORE.INTRA.SOLV>
0

>  <SCORE.INTRA.SOLV.lig_0>
-48.1583

>  <SCORE.INTRA.VDW>
0

>  <SCORE.INTRA.VDW.0>
0

>  <SCORE.INTRA.norm>
0

>  <SCORE.RESTR>
0

>  <SCORE.RESTR.CAVITY>
0

>  <SCORE.RESTR.norm>
0

>  <SCORE.SYSTEM>
0

>  <SCORE.SYSTEM.CONST>
0

>  <SCORE.SYSTEM.DIHEDRAL>
0

>  <SCORE.SYSTEM.SOLV>
0

>  <SCORE.SYSTEM.norm>
0

>  <SCORE.heavy>
12

>  <SCORE.norm>
-1.25151

>  <RMSD>
3.041

$$$$
ligand
 OpenBabel11021811503D
libRbt.so/2013.1/901 2013/11/27
 12 13  0  0  0  0  0  0  0  0999 V2000
    4.7087   15.4177    3.9362 C   0  0  0  0  0  0  0  0  0  0  0  0
    6.0474   17.0470    2.9423 C   0  0  0  0  0  0  0  0  0  0  0  0
    4.0397   14.2729    3.8319 N   0  0  0  0  0  0  0  0  0  0  0  0
    6.6846   17.5775    1.8927 N   0  0  0  0  0  0  0  0  0  0  0  0
    5.3471   15.9086    2.8515 N   0  0  0  0  0  0  0  0  0  0  0  0
    4.7621   16.0551    5.1268 N   0  0  0  0  0  0  0  0  0  0  0  0
    6.8667   19.5983    5.4894 N   0  0  0  0  0  0  0  0  0  0  0  0
    6.1956   19.0551    6.5958 C   0  0  0  0  0  0  0  0  0  0  0  0
    5.4706   17.8482    6.4604 N   0  0  0  0  0  0  0  0  0  0  0  0
    5.4488   17.2164    5.2669 C   0  0  0  0  0  0  0  0  0  0  0  0
    6.1219   17.7386    4.1576 C   0  0  0  0  0  0  0  0  0  0  0  0
    6.8375   18.9310    4.2488 C   0  0  0  0  0  0  0  0  0  0  0  0
  1  3  1  0  0  0  0
  1  5  1  0  0  0  0
  1  6  2  0  0  0  0
  2  5  2  0  0  0  0
  2 11  1  0  0  0  0
  2  4  1  0  0  0  0
  6 10  1  0  0  0  0
  7  8  2  0  0  0  0
  7 12  1  0  0  0  0
  8  9  1  0  0  0  0
  9 10  2  0  0  0  0
 10 11  1  0  0  0  0
 11 12  2  0  0  0  0
M  END
>  <CHROM.1>
5.69688552,17.19570481,4.39046299,2.25326211,-0.96248657,-2.02016768

>  <Name>
ligand

>  <RI>
0

>  <Rbt.Current_Directory>
/home/itssahil/PROJECTS/Mol_Feturizer/New_Systems/rnas/4LX5

>  <Rbt.Executable>
rbdock ($Id: //depot/dev/client3/rdock/2013.1/src/exe/rbdock.cxx#4 $)

>  <Rbt.Library>
libRbt.so (2013.1, Build901 2013/11/27)

>  <Rbt.Parameter_File>
/export/apps/rDock/src/rDock_2013.1_src/data/scripts/dock_solv.prm

>  <Rbt.Receptor>
prm/pocket_docking_5.prm

>  <SCORE>
-15.0165

>  <SCORE.INTER>
-15.0165

>  <SCORE.INTER.CONST>
1

>  <SCORE.INTER.POLAR>
0

>  <SCORE.INTER.ROT>
0

>  <SCORE.INTER.SOLV>
15.7551

>  <SCORE.INTER.VDW>
-18.8627

>  <SCORE.INTER.norm>
-1.25137

>  <SCORE.INTRA>
0

>  <SCORE.INTRA.DIHEDRAL>
0

>  <SCORE.INTRA.DIHEDRAL.0>
0

>  <SCORE.INTRA.POLAR>
0

>  <SCORE.INTRA.POLAR.0>
0

>  <SCORE.INTRA.REPUL>
0

>  <SCORE.INTRA.REPUL.0>
0

>  <SCORE.INTRA.SOLV>
0

>  <SCORE.INTRA.SOLV.lig_0>
-48.1583

>  <SCORE.INTRA.VDW>
0

>  <SCORE.INTRA.VDW.0>
0

>  <SCORE.INTRA.norm>
0

>  <SCORE.RESTR>
0

>  <SCORE.RESTR.CAVITY>
0

>  <SCORE.RESTR.norm>
0

>  <SCORE.SYSTEM>
0

>  <SCORE.SYSTEM.CONST>
0

>  <SCORE.SYSTEM.DIHEDRAL>
0

>  <SCORE.SYSTEM.SOLV>
0

>  <SCORE.SYSTEM.norm>
0

>  <SCORE.heavy>
12

>  <SCORE.norm>
-1.25137

>  <RMSD>
3.041

$$$$
ligand
 OpenBabel11021811503D
libRbt.so/2013.1/901 2013/11/27
 12 13  0  0  0  0  0  0  0  0999 V2000
    4.7153   15.4185    3.9369 C   0  0  0  0  0  0  0  0  0  0  0  0
    6.0444   17.0578    2.9462 C   0  0  0  0  0  0  0  0  0  0  0  0
    4.0524   14.2705    3.8299 N   0  0  0  0  0  0  0  0  0  0  0  0
    6.6777   17.5946    1.8976 N   0  0  0  0  0  0  0  0  0  0  0  0
    5.3501   15.9159    2.8529 N   0  0  0  0  0  0  0  0  0  0  0  0
    4.7665   16.0528    5.1292 N   0  0  0  0  0  0  0  0  0  0  0  0
    6.8526   19.6061    5.4997 N   0  0  0  0  0  0  0  0  0  0  0  0
    6.1855   19.0562    6.6052 C   0  0  0  0  0  0  0  0  0  0  0  0
    5.4668   17.8459    6.4671 N   0  0  0  0  0  0  0  0  0  0  0  0
    5.4472   17.2174    5.2719 C   0  0  0  0  0  0  0  0  0  0  0  0
    6.1164   17.7463    4.1635 C   0  0  0  0  0  0  0  0  0  0  0  0
    6.8258   18.9422    4.2573 C   0  0  0  0  0  0  0  0  0  0  0  0
  1  3  1  0  0  0  0
  1  5  1  0  0  0  0
  1  6  2  0  0  0  0
  2  5  2  0  0  0  0
  2 11  1  0  0  0  0
  2  4  1  0  0  0  0
  6 10  1  0  0  0  0
  7  8  2  0  0  0  0
  7 12  1  0  0  0  0
  8  9  1  0  0  0  0
  9 10  2  0  0  0  0
 10 11  1  0  0  0  0
 11 12  2  0  0  0  0
M  END
>  <CHROM.1>
5.69452402,17.20046725,4.39516810,2.25072956,-0.96769505,-2.01942918

>  <Name>
ligand

>  <RI>
0

>  <Rbt.Current_Directory>
/home/itssahil/PROJECTS/Mol_Feturizer/New_Systems/rnas/4LX5

>  <Rbt.Executable>
rbdock ($Id: //depot/dev/client3/rdock/2013.1/src/exe/rbdock.cxx#4 $)

>  <Rbt.Library>
libRbt.so (2013.1, Build901 2013/11/27)

>  <Rbt.Parameter_File>
/export/apps/rDock/src/rDock_2013.1_src/data/scripts/dock_solv.prm

>  <Rbt.Receptor>
prm/pocket_docking_6.prm

>  <SCORE>
-15.0123

>  <SCORE.INTER>
-15.0123

>  <SCORE.INTER.CONST>
1

>  <SCORE.INTER.POLAR>
0

>  <SCORE.INTER.ROT>
0

>  <SCORE.INTER.SOLV>
15.8043

>  <SCORE.INTER.VDW>
-18.8763

>  <SCORE.INTER.norm>
-1.25103

>  <SCORE.INTRA>
0

>  <SCORE.INTRA.DIHEDRAL>
0

>  <SCORE.INTRA.DIHEDRAL.0>
0

>  <SCORE.INTRA.POLAR>
0

>  <SCORE.INTRA.POLAR.0>
0

>  <SCORE.INTRA.REPUL>
0

>  <SCORE.INTRA.REPUL.0>
0

>  <SCORE.INTRA.SOLV>
0

>  <SCORE.INTRA.SOLV.lig_0>
-48.1583

>  <SCORE.INTRA.VDW>
0

>  <SCORE.INTRA.VDW.0>
0

>  <SCORE.INTRA.norm>
0

>  <SCORE.RESTR>
0

>  <SCORE.RESTR.CAVITY>
0

>  <SCORE.RESTR.norm>
0

>  <SCORE.SYSTEM>
0

>  <SCORE.SYSTEM.CONST>
0

>  <SCORE.SYSTEM.DIHEDRAL>
0

>  <SCORE.SYSTEM.SOLV>
0

>  <SCORE.SYSTEM.norm>
0

>  <SCORE.heavy>
12

>  <SCORE.norm>
-1.25103

>  <RMSD>
3.041

$$$$
ligand
 OpenBabel11021811503D
libRbt.so/2013.1/901 2013/11/27
 12 13  0  0  0  0  0  0  0  0999 V2000
    4.7023   15.4113    3.9298 C   0  0  0  0  0  0  0  0  0  0  0  0
    6.0445   17.0450    2.9478 C   0  0  0  0  0  0  0  0  0  0  0  0
    4.0363   14.2654    3.8189 N   0  0  0  0  0  0  0  0  0  0  0  0
    6.6877   17.5786    1.9035 N   0  0  0  0  0  0  0  0  0  0  0  0
    5.3470   15.9054    2.8503 N   0  0  0  0  0  0  0  0  0  0  0  0
    4.7465   16.0466    5.1219 N   0  0  0  0  0  0  0  0  0  0  0  0
    6.8418   19.5932    5.5049 N   0  0  0  0  0  0  0  0  0  0  0  0
    6.1644   19.0467    6.6058 C   0  0  0  0  0  0  0  0  0  0  0  0
    5.4426   17.8386    6.4634 N   0  0  0  0  0  0  0  0  0  0  0  0
    5.4301   17.2090    5.2687 C   0  0  0  0  0  0  0  0  0  0  0  0
    6.1095   17.7345    4.1649 C   0  0  0  0  0  0  0  0  0  0  0  0
    6.8222   18.9281    4.2630 C   0  0  0  0  0  0  0  0  0  0  0  0
  1  3  1  0  0  0  0
  1  5  1  0  0  0  0
  1  6  2  0  0  0  0
  2  5  2  0  0  0  0
  2 11  1  0  0  0  0
  2  4  1  0  0  0  0
  6 10  1  0  0  0  0
  7  8  2  0  0  0  0
  7 12  1  0  0  0  0
  8  9  1  0  0  0  0
  9 10  2  0  0  0  0
 10 11  1  0  0  0  0
 11 12  2  0  0  0  0
M  END
>  <CHROM.1>
5.68402072,17.19035317,4.39388151,2.24123517,-0.96128334,-2.02822359

>  <Name>
ligand

>  <RI>
0

>  <Rbt.Current_Directory>
/home/itssahil/PROJECTS/Mol_Feturizer/New_Systems/rnas/4LX5

>  <Rbt.Executable>
rbdock ($Id: //depot/dev/client3/rdock/2013.1/src/exe/rbdock.cxx#4 $)

>  <Rbt.Library>
libRbt.so (2013.1, Build901 2013/11/27)

>  <Rbt.Parameter_File>
/export/apps/rDock/src/rDock_2013.1_src/data/scripts/dock_solv.prm

>  <Rbt.Receptor>
prm/pocket_docking_7.prm

>  <SCORE>
-15.0184

>  <SCORE.INTER>
-15.0184

>  <SCORE.INTER.CONST>
1

>  <SCORE.INTER.POLAR>
0

>  <SCORE.INTER.ROT>
0

>  <SCORE.INTER.SOLV>
15.7267

>  <SCORE.INTER.VDW>
-18.8545

>  <SCORE.INTER.norm>
-1.25153

>  <SCORE.INTRA>
0

>  <SCORE.INTRA.DIHEDRAL>
0

>  <SCORE.INTRA.DIHEDRAL.0>
0

>  <SCORE.INTRA.POLAR>
0

>  <SCORE.INTRA.POLAR.0>
0

>  <SCORE.INTRA.REPUL>
0

>  <SCORE.INTRA.REPUL.0>
0

>  <SCORE.INTRA.SOLV>
0

>  <SCORE.INTRA.SOLV.lig_0>
-48.1583

>  <SCORE.INTRA.VDW>
0

>  <SCORE.INTRA.VDW.0>
0

>  <SCORE.INTRA.norm>
0

>  <SCORE.RESTR>
0

>  <SCORE.RESTR.CAVITY>
0

>  <SCORE.RESTR.norm>
0

>  <SCORE.SYSTEM>
0

>  <SCORE.SYSTEM.CONST>
0

>  <SCORE.SYSTEM.DIHEDRAL>
0

>  <SCORE.SYSTEM.SOLV>
0

>  <SCORE.SYSTEM.norm>
0

>  <SCORE.heavy>
12

>  <SCORE.norm>
-1.25153

>  <RMSD>
3.041

$$$$
ligand
 OpenBabel11021811503D
libRbt.so/2013.1/901 2013/11/27
 12 13  0  0  0  0  0  0  0  0999 V2000
    4.6932   15.4831    3.9406 C   0  0  0  0  0  0  0  0  0  0  0  0
    6.0763   17.0788    2.9527 C   0  0  0  0  0  0  0  0  0  0  0  0
    4.0046   14.3500    3.8361 N   0  0  0  0  0  0  0  0  0  0  0  0
    6.7383   17.5883    1.9081 N   0  0  0  0  0  0  0  0  0  0  0  0
    5.3563   15.9527    2.8613 N   0  0  0  0  0  0  0  0  0  0  0  0
    4.7412   16.1297    5.1265 N   0  0  0  0  0  0  0  0  0  0  0  0
    6.9060   19.6363    5.4900 N   0  0  0  0  0  0  0  0  0  0  0  0
    6.2090   19.1152    6.5910 C   0  0  0  0  0  0  0  0  0  0  0  0
    5.4636   17.9208    6.4551 N   0  0  0  0  0  0  0  0  0  0  0  0
    5.4474   17.2793    5.2668 C   0  0  0  0  0  0  0  0  0  0  0  0
    6.1460   17.7793    4.1632 C   0  0  0  0  0  0  0  0  0  0  0  0
    6.8823   18.9591    4.2547 C   0  0  0  0  0  0  0  0  0  0  0  0
  1  3  1  0  0  0  0
  1  5  1  0  0  0  0
  1  6  2  0  0  0  0
  2  5  2  0  0  0  0
  2 11  1  0  0  0  0
  2  4  1  0  0  0  0
  6 10  1  0  0  0  0
  7  8  2  0  0  0  0
  7 12  1  0  0  0  0
  8  9  1  0  0  0  0
  9 10  2  0  0  0  0
 10 11  1  0  0  0  0
 11 12  2  0  0  0  0
M  END
>  <CHROM.1>
5.70768109,17.24640724,4.39429858,2.24489516,-0.93941903,-2.03550588

>  <Name>
ligand

>  <RI>
0

>  <Rbt.Current_Directory>
/home/itssahil/PROJECTS/Mol_Feturizer/New_Systems/rnas/4LX5

>  <Rbt.Executable>
rbdock ($Id: //depot/dev/client3/rdock/2013.1/src/exe/rbdock.cxx#4 $)

>  <Rbt.Library>
libRbt.so (2013.1, Build901 2013/11/27)

>  <Rbt.Parameter_File>
/export/apps/rDock/src/rDock_2013.1_src/data/scripts/dock_solv.prm

>  <Rbt.Receptor>
prm/pocket_docking_8.prm

>  <SCORE>
-15.0643

>  <SCORE.INTER>
-15.0643

>  <SCORE.INTER.CONST>
1

>  <SCORE.INTER.POLAR>
0

>  <SCORE.INTER.ROT>
0

>  <SCORE.INTER.SOLV>
15.624

>  <SCORE.INTER.VDW>
-18.8508

>  <SCORE.INTER.norm>
-1.25535

>  <SCORE.INTRA>
0

>  <SCORE.INTRA.DIHEDRAL>
0

>  <SCORE.INTRA.DIHEDRAL.0>
0

>  <SCORE.INTRA.POLAR>
0

>  <SCORE.INTRA.POLAR.0>
0

>  <SCORE.INTRA.REPUL>
0

>  <SCORE.INTRA.REPUL.0>
0

>  <SCORE.INTRA.SOLV>
0

>  <SCORE.INTRA.SOLV.lig_0>
-48.1583

>  <SCORE.INTRA.VDW>
0

>  <SCORE.INTRA.VDW.0>
0

>  <SCORE.INTRA.norm>
0

>  <SCORE.RESTR>
0

>  <SCORE.RESTR.CAVITY>
0

>  <SCORE.RESTR.norm>
0

>  <SCORE.SYSTEM>
0

>  <SCORE.SYSTEM.CONST>
0

>  <SCORE.SYSTEM.DIHEDRAL>
0

>  <SCORE.SYSTEM.SOLV>
0

>  <SCORE.SYSTEM.norm>
0

>  <SCORE.heavy>
12

>  <SCORE.norm>
-1.25535

>  <RMSD>
3.041

$$$$
ligand
 OpenBabel11021811503D
libRbt.so/2013.1/901 2013/11/27
 12 13  0  0  0  0  0  0  0  0999 V2000
    4.7069   15.4114    3.9338 C   0  0  0  0  0  0  0  0  0  0  0  0
    6.0444   17.0461    2.9468 C   0  0  0  0  0  0  0  0  0  0  0  0
    4.0412   14.2651    3.8253 N   0  0  0  0  0  0  0  0  0  0  0  0
    6.6832   17.5802    1.9001 N   0  0  0  0  0  0  0  0  0  0  0  0
    5.3472   15.9060    2.8518 N   0  0  0  0  0  0  0  0  0  0  0  0
    4.7552   16.0467    5.1257 N   0  0  0  0  0  0  0  0  0  0  0  0
    6.8498   19.5944    5.5011 N   0  0  0  0  0  0  0  0  0  0  0  0
    6.1769   19.0474    6.6045 C   0  0  0  0  0  0  0  0  0  0  0  0
    5.4553   17.8389    6.4647 N   0  0  0  0  0  0  0  0  0  0  0  0
    5.4387   17.2094    5.2700 C   0  0  0  0  0  0  0  0  0  0  0  0
    6.1135   17.7355    4.1637 C   0  0  0  0  0  0  0  0  0  0  0  0
    6.8259   18.9295    4.2592 C   0  0  0  0  0  0  0  0  0  0  0  0
  1  3  1  0  0  0  0
  1  5  1  0  0  0  0
  1  6  2  0  0  0  0
  2  5  2  0  0  0  0
  2 11  1  0  0  0  0
  2  4  1  0  0  0  0
  6 10  1  0  0  0  0
  7  8  2  0  0  0  0
  7 12  1  0  0  0  0
  8  9  1  0  0  0  0
  9 10  2  0  0  0  0
 10 11  1  0  0  0  0
 11 12  2  0  0  0  0
M  END
>  <CHROM.1>
5.68928576,17.19103640,4.39424769,2.24674455,-0.96352159,-2.02360086

>  <Name>
ligand

>  <RI>
0

>  <Rbt.Current_Directory>
/home/itssahil/PROJECTS/Mol_Feturizer/New_Systems/rnas/4LX5

>  <Rbt.Executable>
rbdock ($Id: //depot/dev/client3/rdock/2013.1/src/exe/rbdock.cxx#4 $)

>  <Rbt.Library>
libRbt.so (2013.1, Build901 2013/11/27)

>  <Rbt.Parameter_File>
/export/apps/rDock/src/rDock_2013.1_src/data/scripts/dock_solv.prm

>  <Rbt.Receptor>
prm/blind_docking_100.prm

>  <SCORE>
-15.0185

>  <SCORE.INTER>
-15.0185

>  <SCORE.INTER.CONST>
1

>  <SCORE.INTER.POLAR>
0

>  <SCORE.INTER.ROT>
0

>  <SCORE.INTER.SOLV>
15.7513

>  <SCORE.INTER.VDW>
-18.8627

>  <SCORE.INTER.norm>
-1.25154

>  <SCORE.INTRA>
0

>  <SCORE.INTRA.DIHEDRAL>
0

>  <SCORE.INTRA.DIHEDRAL.0>
0

>  <SCORE.INTRA.POLAR>
0

>  <SCORE.INTRA.POLAR.0>
0

>  <SCORE.INTRA.REPUL>
0

>  <SCORE.INTRA.REPUL.0>
0

>  <SCORE.INTRA.SOLV>
0

>  <SCORE.INTRA.SOLV.lig_0>
-48.1583

>  <SCORE.INTRA.VDW>
0

>  <SCORE.INTRA.VDW.0>
0

>  <SCORE.INTRA.norm>
0

>  <SCORE.RESTR>
0

>  <SCORE.RESTR.CAVITY>
0

>  <SCORE.RESTR.norm>
0

>  <SCORE.SYSTEM>
0

>  <SCORE.SYSTEM.CONST>
0

>  <SCORE.SYSTEM.DIHEDRAL>
0

>  <SCORE.SYSTEM.SOLV>
0

>  <SCORE.SYSTEM.norm>
0

>  <SCORE.heavy>
12

>  <SCORE.norm>
-1.25154

>  <RMSD>
3.042

$$$$
ligand
 OpenBabel11021811503D
libRbt.so/2013.1/901 2013/11/27
 12 13  0  0  0  0  0  0  0  0999 V2000
    4.6959   15.4194    3.9353 C   0  0  0  0  0  0  0  0  0  0  0  0
    6.0462   17.0414    2.9449 C   0  0  0  0  0  0  0  0  0  0  0  0
    4.0219   14.2778    3.8295 N   0  0  0  0  0  0  0  0  0  0  0  0
    6.6900   17.5677    1.8972 N   0  0  0  0  0  0  0  0  0  0  0  0
    5.3408   15.9062    2.8525 N   0  0  0  0  0  0  0  0  0  0  0  0
    4.7477   16.0578    5.1254 N   0  0  0  0  0  0  0  0  0  0  0  0
    6.8679   19.5912    5.4926 N   0  0  0  0  0  0  0  0  0  0  0  0
    6.1900   19.0524    6.5969 C   0  0  0  0  0  0  0  0  0  0  0  0
    5.4597   17.8488    6.4599 N   0  0  0  0  0  0  0  0  0  0  0  0
    5.4395   17.2160    5.2670 C   0  0  0  0  0  0  0  0  0  0  0  0
    6.1193   17.7338    4.1598 C   0  0  0  0  0  0  0  0  0  0  0  0
    6.8403   18.9229    4.2525 C   0  0  0  0  0  0  0  0  0  0  0  0
  1  3  1  0  0  0  0
  1  5  1  0  0  0  0
  1  6  2  0  0  0  0
  2  5  2  0  0  0  0
  2 11  1  0  0  0  0
  2  4  1  0  0  0  0
  6 10  1  0  0  0  0
  7  8  2  0  0  0  0
  7 12  1  0  0  0  0
  8  9  1  0  0  0  0
  9 10  2  0  0  0  0
 10 11  1  0  0  0  0
 11 12  2  0  0  0  0
M  END
>  <CHROM.1>
5.69084687,17.19317540,4.39154329,2.25084743,-0.95650826,-2.02315006

>  <Name>
ligand

>  <RI>
0

>  <Rbt.Current_Directory>
/home/itssahil/PROJECTS/Mol_Feturizer/New_Systems/rnas/4LX5

>  <Rbt.Executable>
rbdock ($Id: //depot/dev/client3/rdock/2013.1/src/exe/rbdock.cxx#4 $)

>  <Rbt.Library>
libRbt.so (2013.1, Build901 2013/11/27)

>  <Rbt.Parameter_File>
/export/apps/rDock/src/rDock_2013.1_src/data/scripts/dock_solv.prm

>  <Rbt.Receptor>
prm/blind_docking_60.prm

>  <SCORE>
-15.019

>  <SCORE.INTER>
-15.019

>  <SCORE.INTER.CONST>
1

>  <SCORE.INTER.POLAR>
0

>  <SCORE.INTER.ROT>
0

>  <SCORE.INTER.SOLV>
15.6677

>  <SCORE.INTER.VDW>
-18.8352

>  <SCORE.INTER.norm>
-1.25159

>  <SCORE.INTRA>
0

>  <SCORE.INTRA.DIHEDRAL>
0

>  <SCORE.INTRA.DIHEDRAL.0>
0

>  <SCORE.INTRA.POLAR>
0

>  <SCORE.INTRA.POLAR.0>
0

>  <SCORE.INTRA.REPUL>
0

>  <SCORE.INTRA.REPUL.0>
0

>  <SCORE.INTRA.SOLV>
0

>  <SCORE.INTRA.SOLV.lig_0>
-48.1583

>  <SCORE.INTRA.VDW>
0

>  <SCORE.INTRA.VDW.0>
0

>  <SCORE.INTRA.norm>
0

>  <SCORE.RESTR>
0

>  <SCORE.RESTR.CAVITY>
0

>  <SCORE.RESTR.norm>
0

>  <SCORE.SYSTEM>
0

>  <SCORE.SYSTEM.CONST>
0

>  <SCORE.SYSTEM.DIHEDRAL>
0

>  <SCORE.SYSTEM.SOLV>
0

>  <SCORE.SYSTEM.norm>
0

>  <SCORE.heavy>
12

>  <SCORE.norm>
-1.25159

>  <RMSD>
3.042

$$$$
ligand
 OpenBabel11021811503D
libRbt.so/2013.1/901 2013/11/27
 12 13  0  0  0  0  0  0  0  0999 V2000
    4.6833   15.4815    3.9302 C   0  0  0  0  0  0  0  0  0  0  0  0
    6.0750   17.0842    2.9662 C   0  0  0  0  0  0  0  0  0  0  0  0
    3.9953   14.3495    3.8112 N   0  0  0  0  0  0  0  0  0  0  0  0
    6.7460   17.6015    1.9312 N   0  0  0  0  0  0  0  0  0  0  0  0
    5.3555   15.9592    2.8601 N   0  0  0  0  0  0  0  0  0  0  0  0
    4.7217   16.1189    5.1214 N   0  0  0  0  0  0  0  0  0  0  0  0
    6.8844   19.6218    5.5300 N   0  0  0  0  0  0  0  0  0  0  0  0
    6.1781   19.0925    6.6211 C   0  0  0  0  0  0  0  0  0  0  0  0
    5.4335   17.8995    6.4698 N   0  0  0  0  0  0  0  0  0  0  0  0
    5.4270   17.2671    5.2765 C   0  0  0  0  0  0  0  0  0  0  0  0
    6.1349   17.7754    4.1826 C   0  0  0  0  0  0  0  0  0  0  0  0
    6.8708   18.9541    4.2894 C   0  0  0  0  0  0  0  0  0  0  0  0
  1  3  1  0  0  0  0
  1  5  1  0  0  0  0
  1  6  2  0  0  0  0
  2  5  2  0  0  0  0
  2 11  1  0  0  0  0
  2  4  1  0  0  0  0
  6 10  1  0  0  0  0
  7  8  2  0  0  0  0
  7 12  1  0  0  0  0
  8  9  1  0  0  0  0
  9 10  2  0  0  0  0
 10 11  1  0  0  0  0
 11 12  2  0  0  0  0
M  END
>  <CHROM.1>
5.69452830,17.24087628,4.40592758,2.23257701,-0.93536918,-2.03772389

>  <Name>
ligand

>  <RI>
0

>  <Rbt.Current_Directory>
/home/itssahil/PROJECTS/Mol_Feturizer/New_Systems/rnas/4LX5

>  <Rbt.Executable>
rbdock ($Id: //depot/dev/client3/rdock/2013.1/src/exe/rbdock.cxx#4 $)

>  <Rbt.Library>
libRbt.so (2013.1, Build901 2013/11/27)

>  <Rbt.Parameter_File>
/export/apps/rDock/src/rDock_2013.1_src/data/scripts/dock_solv.prm

>  <Rbt.Receptor>
prm/pocket_docking_4.prm

>  <SCORE>
-15.0285

>  <SCORE.INTER>
-15.0285

>  <SCORE.INTER.CONST>
1

>  <SCORE.INTER.POLAR>
0

>  <SCORE.INTER.ROT>
0

>  <SCORE.INTER.SOLV>
15.5405

>  <SCORE.INTER.VDW>
-18.7992

>  <SCORE.INTER.norm>
-1.25238

>  <SCORE.INTRA>
0

>  <SCORE.INTRA.DIHEDRAL>
0

>  <SCORE.INTRA.DIHEDRAL.0>
0

>  <SCORE.INTRA.POLAR>
0

>  <SCORE.INTRA.POLAR.0>
0

>  <SCORE.INTRA.REPUL>
0

>  <SCORE.INTRA.REPUL.0>
0

>  <SCORE.INTRA.SOLV>
0

>  <SCORE.INTRA.SOLV.lig_0>
-48.1583

>  <SCORE.INTRA.VDW>
0

>  <SCORE.INTRA.VDW.0>
0

>  <SCORE.INTRA.norm>
0

>  <SCORE.RESTR>
0

>  <SCORE.RESTR.CAVITY>
0

>  <SCORE.RESTR.norm>
0

>  <SCORE.SYSTEM>
0

>  <SCORE.SYSTEM.CONST>
0

>  <SCORE.SYSTEM.DIHEDRAL>
0

>  <SCORE.SYSTEM.SOLV>
0

>  <SCORE.SYSTEM.norm>
0

>  <SCORE.heavy>
12

>  <SCORE.norm>
-1.25238

>  <RMSD>
3.042

$$$$
ligand
 OpenBabel11021811503D
libRbt.so/2013.1/901 2013/11/27
 12 13  0  0  0  0  0  0  0  0999 V2000
    4.6956   15.4156    3.9329 C   0  0  0  0  0  0  0  0  0  0  0  0
    6.0460   17.0401    2.9468 C   0  0  0  0  0  0  0  0  0  0  0  0
    4.0225   14.2737    3.8244 N   0  0  0  0  0  0  0  0  0  0  0  0
    6.6908   17.5686    1.9009 N   0  0  0  0  0  0  0  0  0  0  0  0
    5.3416   15.9046    2.8518 N   0  0  0  0  0  0  0  0  0  0  0  0
    4.7454   16.0522    5.1241 N   0  0  0  0  0  0  0  0  0  0  0  0
    6.8625   19.5866    5.4995 N   0  0  0  0  0  0  0  0  0  0  0  0
    6.1835   19.0455    6.6021 C   0  0  0  0  0  0  0  0  0  0  0  0
    5.4542   17.8416    6.4623 N   0  0  0  0  0  0  0  0  0  0  0  0
    5.4361   17.2106    5.2684 C   0  0  0  0  0  0  0  0  0  0  0  0
    6.1170   17.7307    4.1629 C   0  0  0  0  0  0  0  0  0  0  0  0
    6.8370   18.9202    4.2584 C   0  0  0  0  0  0  0  0  0  0  0  0
  1  3  1  0  0  0  0
  1  5  1  0  0  0  0
  1  6  2  0  0  0  0
  2  5  2  0  0  0  0
  2 11  1  0  0  0  0
  2  4  1  0  0  0  0
  6 10  1  0  0  0  0
  7  8  2  0  0  0  0
  7 12  1  0  0  0  0
  8  9  1  0  0  0  0
  9 10  2  0  0  0  0
 10 11  1  0  0  0  0
 11 12  2  0  0  0  0
M  END
>  <CHROM.1>
5.68862281,17.18939668,4.39323856,2.24821520,-0.95658463,-2.02374810

>  <Name>
ligand

>  <RI>
0

>  <Rbt.Current_Directory>
/home/itssahil/PROJECTS/Mol_Feturizer/New_Systems/rnas/4LX5

>  <Rbt.Executable>
rbdock ($Id: //depot/dev/client3/rdock/2013.1/src/exe/rbdock.cxx#4 $)

>  <Rbt.Library>
libRbt.so (2013.1, Build901 2013/11/27)

>  <Rbt.Parameter_File>
/export/apps/rDock/src/rDock_2013.1_src/data/scripts/dock_solv.prm

>  <Rbt.Receptor>
prm/pocket_docking_8.prm

>  <SCORE>
-15.0197

>  <SCORE.INTER>
-15.0197

>  <SCORE.INTER.CONST>
1

>  <SCORE.INTER.POLAR>
0

>  <SCORE.INTER.ROT>
0

>  <SCORE.INTER.SOLV>
15.6651

>  <SCORE.INTER.VDW>
-18.8348

>  <SCORE.INTER.norm>
-1.25164

>  <SCORE.INTRA>
0

>  <SCORE.INTRA.DIHEDRAL>
0

>  <SCORE.INTRA.DIHEDRAL.0>
0

>  <SCORE.INTRA.POLAR>
0

>  <SCORE.INTRA.POLAR.0>
0

>  <SCORE.INTRA.REPUL>
0

>  <SCORE.INTRA.REPUL.0>
0

>  <SCORE.INTRA.SOLV>
0

>  <SCORE.INTRA.SOLV.lig_0>
-48.1583

>  <SCORE.INTRA.VDW>
0

>  <SCORE.INTRA.VDW.0>
0

>  <SCORE.INTRA.norm>
0

>  <SCORE.RESTR>
0

>  <SCORE.RESTR.CAVITY>
0

>  <SCORE.RESTR.norm>
0

>  <SCORE.SYSTEM>
0

>  <SCORE.SYSTEM.CONST>
0

>  <SCORE.SYSTEM.DIHEDRAL>
0

>  <SCORE.SYSTEM.SOLV>
0

>  <SCORE.SYSTEM.norm>
0

>  <SCORE.heavy>
12

>  <SCORE.norm>
-1.25164

>  <RMSD>
3.042

$$$$
ligand
 OpenBabel11021811503D
libRbt.so/2013.1/901 2013/11/27
 12 13  0  0  0  0  0  0  0  0999 V2000
    4.6923   15.4793    3.9424 C   0  0  0  0  0  0  0  0  0  0  0  0
    6.0652   17.0797    2.9481 C   0  0  0  0  0  0  0  0  0  0  0  0
    4.0073   14.3438    3.8411 N   0  0  0  0  0  0  0  0  0  0  0  0
    6.7208   17.5914    1.9005 N   0  0  0  0  0  0  0  0  0  0  0  0
    5.3488   15.9511    2.8600 N   0  0  0  0  0  0  0  0  0  0  0  0
    4.7434   16.1263    5.1279 N   0  0  0  0  0  0  0  0  0  0  0  0
    6.8973   19.6406    5.4813 N   0  0  0  0  0  0  0  0  0  0  0  0
    6.2071   19.1172    6.5855 C   0  0  0  0  0  0  0  0  0  0  0  0
    5.4654   17.9201    6.4531 N   0  0  0  0  0  0  0  0  0  0  0  0
    5.4461   17.2783    5.2650 C   0  0  0  0  0  0  0  0  0  0  0  0
    6.1379   17.7807    4.1581 C   0  0  0  0  0  0  0  0  0  0  0  0
    6.8705   18.9630    4.2462 C   0  0  0  0  0  0  0  0  0  0  0  0
  1  3  1  0  0  0  0
  1  5  1  0  0  0  0
  1  6  2  0  0  0  0
  2  5  2  0  0  0  0
  2 11  1  0  0  0  0
  2  4  1  0  0  0  0
  6 10  1  0  0  0  0
  7  8  2  0  0  0  0
  7 12  1  0  0  0  0
  8  9  1  0  0  0  0
  9 10  2  0  0  0  0
 10 11  1  0  0  0  0
 11 12  2  0  0  0  0
M  END
>  <CHROM.1>
5.70253632,17.24626302,4.39130049,2.24903217,-0.94459919,-2.03229518

>  <Name>
ligand

>  <RI>
0

>  <Rbt.Current_Directory>
/home/itssahil/PROJECTS/Mol_Feturizer/New_Systems/rnas/4LX5

>  <Rbt.Executable>
rbdock ($Id: //depot/dev/client3/rdock/2013.1/src/exe/rbdock.cxx#4 $)

>  <Rbt.Library>
libRbt.so (2013.1, Build901 2013/11/27)

>  <Rbt.Parameter_File>
/export/apps/rDock/src/rDock_2013.1_src/data/scripts/dock_solv.prm

>  <Rbt.Receptor>
prm/pocket_docking_8.prm

>  <SCORE>
-15.0712

>  <SCORE.INTER>
-15.0712

>  <SCORE.INTER.CONST>
1

>  <SCORE.INTER.POLAR>
0

>  <SCORE.INTER.ROT>
0

>  <SCORE.INTER.SOLV>
15.6316

>  <SCORE.INTER.VDW>
-18.858

>  <SCORE.INTER.norm>
-1.25593

>  <SCORE.INTRA>
0

>  <SCORE.INTRA.DIHEDRAL>
0

>  <SCORE.INTRA.DIHEDRAL.0>
0

>  <SCORE.INTRA.POLAR>
0

>  <SCORE.INTRA.POLAR.0>
0

>  <SCORE.INTRA.REPUL>
0

>  <SCORE.INTRA.REPUL.0>
0

>  <SCORE.INTRA.SOLV>
0

>  <SCORE.INTRA.SOLV.lig_0>
-48.1583

>  <SCORE.INTRA.VDW>
0

>  <SCORE.INTRA.VDW.0>
0

>  <SCORE.INTRA.norm>
0

>  <SCORE.RESTR>
0

>  <SCORE.RESTR.CAVITY>
0

>  <SCORE.RESTR.norm>
0

>  <SCORE.SYSTEM>
0

>  <SCORE.SYSTEM.CONST>
0

>  <SCORE.SYSTEM.DIHEDRAL>
0

>  <SCORE.SYSTEM.SOLV>
0

>  <SCORE.SYSTEM.norm>
0

>  <SCORE.heavy>
12

>  <SCORE.norm>
-1.25593

>  <RMSD>
3.042

$$$$
ligand
 OpenBabel11021811503D
libRbt.so/2013.1/901 2013/11/27
 12 13  0  0  0  0  0  0  0  0999 V2000
    4.6984   15.4579    3.9444 C   0  0  0  0  0  0  0  0  0  0  0  0
    6.0503   17.0782    2.9535 C   0  0  0  0  0  0  0  0  0  0  0  0
    4.0208   14.3185    3.8381 N   0  0  0  0  0  0  0  0  0  0  0  0
    6.6924   17.6051    1.9050 N   0  0  0  0  0  0  0  0  0  0  0  0
    5.3414   15.9453    2.8608 N   0  0  0  0  0  0  0  0  0  0  0  0
    4.7557   16.0935    5.1358 N   0  0  0  0  0  0  0  0  0  0  0  0
    6.8872   19.6200    5.5043 N   0  0  0  0  0  0  0  0  0  0  0  0
    6.2111   19.0806    6.6095 C   0  0  0  0  0  0  0  0  0  0  0  0
    5.4769   17.8794    6.4720 N   0  0  0  0  0  0  0  0  0  0  0  0
    5.4513   17.2493    5.2778 C   0  0  0  0  0  0  0  0  0  0  0  0
    6.1291   17.7677    4.1697 C   0  0  0  0  0  0  0  0  0  0  0  0
    6.8538   18.9545    4.2628 C   0  0  0  0  0  0  0  0  0  0  0  0
  1  3  1  0  0  0  0
  1  5  1  0  0  0  0
  1  6  2  0  0  0  0
  2  5  2  0  0  0  0
  2 11  1  0  0  0  0
  2  4  1  0  0  0  0
  6 10  1  0  0  0  0
  7  8  2  0  0  0  0
  7 12  1  0  0  0  0
  8  9  1  0  0  0  0
  9 10  2  0  0  0  0
 10 11  1  0  0  0  0
 11 12  2  0  0  0  0
M  END
>  <CHROM.1>
5.69984161,17.22779098,4.40153739,2.25779147,-0.95524491,-2.01524541

>  <Name>
ligand

>  <RI>
0

>  <Rbt.Current_Directory>
/home/itssahil/PROJECTS/Mol_Feturizer/New_Systems/rnas/4LX5

>  <Rbt.Executable>
rbdock ($Id: //depot/dev/client3/rdock/2013.1/src/exe/rbdock.cxx#4 $)

>  <Rbt.Library>
libRbt.so (2013.1, Build901 2013/11/27)

>  <Rbt.Parameter_File>
/export/apps/rDock/src/rDock_2013.1_src/data/scripts/dock_solv.prm

>  <Rbt.Receptor>
prm/blind_docking_100.prm

>  <SCORE>
-15.0284

>  <SCORE.INTER>
-15.0284

>  <SCORE.INTER.CONST>
1

>  <SCORE.INTER.POLAR>
0

>  <SCORE.INTER.ROT>
0

>  <SCORE.INTER.SOLV>
15.654

>  <SCORE.INTER.VDW>
-18.8369

>  <SCORE.INTER.norm>
-1.25237

>  <SCORE.INTRA>
0

>  <SCORE.INTRA.DIHEDRAL>
0

>  <SCORE.INTRA.DIHEDRAL.0>
0

>  <SCORE.INTRA.POLAR>
0

>  <SCORE.INTRA.POLAR.0>
0

>  <SCORE.INTRA.REPUL>
0

>  <SCORE.INTRA.REPUL.0>
0

>  <SCORE.INTRA.SOLV>
0

>  <SCORE.INTRA.SOLV.lig_0>
-48.1583

>  <SCORE.INTRA.VDW>
0

>  <SCORE.INTRA.VDW.0>
0

>  <SCORE.INTRA.norm>
0

>  <SCORE.RESTR>
0

>  <SCORE.RESTR.CAVITY>
0

>  <SCORE.RESTR.norm>
0

>  <SCORE.SYSTEM>
0

>  <SCORE.SYSTEM.CONST>
0

>  <SCORE.SYSTEM.DIHEDRAL>
0

>  <SCORE.SYSTEM.SOLV>
0

>  <SCORE.SYSTEM.norm>
0

>  <SCORE.heavy>
12

>  <SCORE.norm>
-1.25237

>  <RMSD>
3.043

$$$$
ligand
 OpenBabel11021811503D
libRbt.so/2013.1/901 2013/11/27
 12 13  0  0  0  0  0  0  0  0999 V2000
    4.6927   15.4206    3.9357 C   0  0  0  0  0  0  0  0  0  0  0  0
    6.0473   17.0402    2.9473 C   0  0  0  0  0  0  0  0  0  0  0  0
    4.0169   14.2801    3.8289 N   0  0  0  0  0  0  0  0  0  0  0  0
    6.6935   17.5655    1.9007 N   0  0  0  0  0  0  0  0  0  0  0  0
    5.3401   15.9062    2.8539 N   0  0  0  0  0  0  0  0  0  0  0  0
    4.7439   16.0588    5.1260 N   0  0  0  0  0  0  0  0  0  0  0  0
    6.8696   19.5885    5.4963 N   0  0  0  0  0  0  0  0  0  0  0  0
    6.1891   19.0508    6.5996 C   0  0  0  0  0  0  0  0  0  0  0  0
    5.4570   17.8485    6.4615 N   0  0  0  0  0  0  0  0  0  0  0  0
    5.4375   17.2157    5.2685 C   0  0  0  0  0  0  0  0  0  0  0  0
    6.1198   17.7325    4.1624 C   0  0  0  0  0  0  0  0  0  0  0  0
    6.8427   18.9203    4.2562 C   0  0  0  0  0  0  0  0  0  0  0  0
  1  3  1  0  0  0  0
  1  5  1  0  0  0  0
  1  6  2  0  0  0  0
  2  5  2  0  0  0  0
  2 11  1  0  0  0  0
  2  4  1  0  0  0  0
  6 10  1  0  0  0  0
  7  8  2  0  0  0  0
  7 12  1  0  0  0  0
  8  9  1  0  0  0  0
  9 10  2  0  0  0  0
 10 11  1  0  0  0  0
 11 12  2  0  0  0  0
M  END
>  <CHROM.1>
5.69005146,17.19253992,4.39348511,2.24986034,-0.95430173,-2.02392298

>  <Name>
ligand

>  <RI>
0

>  <Rbt.Current_Directory>
/home/itssahil/PROJECTS/Mol_Feturizer/New_Systems/rnas/4LX5

>  <Rbt.Executable>
rbdock ($Id: //depot/dev/client3/rdock/2013.1/src/exe/rbdock.cxx#4 $)

>  <Rbt.Library>
libRbt.so (2013.1, Build901 2013/11/27)

>  <Rbt.Parameter_File>
/export/apps/rDock/src/rDock_2013.1_src/data/scripts/dock_solv.prm

>  <Rbt.Receptor>
prm/blind_docking_40.prm

>  <SCORE>
-15.0168

>  <SCORE.INTER>
-15.0168

>  <SCORE.INTER.CONST>
1

>  <SCORE.INTER.POLAR>
0

>  <SCORE.INTER.ROT>
0

>  <SCORE.INTER.SOLV>
15.6428

>  <SCORE.INTER.VDW>
-18.8255

>  <SCORE.INTER.norm>
-1.2514

>  <SCORE.INTRA>
0

>  <SCORE.INTRA.DIHEDRAL>
0

>  <SCORE.INTRA.DIHEDRAL.0>
0

>  <SCORE.INTRA.POLAR>
0

>  <SCORE.INTRA.POLAR.0>
0

>  <SCORE.INTRA.REPUL>
0

>  <SCORE.INTRA.REPUL.0>
0

>  <SCORE.INTRA.SOLV>
0

>  <SCORE.INTRA.SOLV.lig_0>
-48.1583

>  <SCORE.INTRA.VDW>
0

>  <SCORE.INTRA.VDW.0>
0

>  <SCORE.INTRA.norm>
0

>  <SCORE.RESTR>
0

>  <SCORE.RESTR.CAVITY>
0

>  <SCORE.RESTR.norm>
0

>  <SCORE.SYSTEM>
0

>  <SCORE.SYSTEM.CONST>
0

>  <SCORE.SYSTEM.DIHEDRAL>
0

>  <SCORE.SYSTEM.SOLV>
0

>  <SCORE.SYSTEM.norm>
0

>  <SCORE.heavy>
12

>  <SCORE.norm>
-1.2514

>  <RMSD>
3.043

$$$$
ligand
 OpenBabel11021811503D
libRbt.so/2013.1/901 2013/11/27
 12 13  0  0  0  0  0  0  0  0999 V2000
    4.6986   15.4540    3.9383 C   0  0  0  0  0  0  0  0  0  0  0  0
    6.0526   17.0804    2.9604 C   0  0  0  0  0  0  0  0  0  0  0  0
    4.0233   14.3138    3.8243 N   0  0  0  0  0  0  0  0  0  0  0  0
    6.6988   17.6124    1.9171 N   0  0  0  0  0  0  0  0  0  0  0  0
    5.3460   15.9467    2.8597 N   0  0  0  0  0  0  0  0  0  0  0  0
    4.7491   16.0849    5.1325 N   0  0  0  0  0  0  0  0  0  0  0  0
    6.8730   19.6133    5.5252 N   0  0  0  0  0  0  0  0  0  0  0  0
    6.1925   19.0684    6.6250 C   0  0  0  0  0  0  0  0  0  0  0  0
    5.4610   17.8667    6.4793 N   0  0  0  0  0  0  0  0  0  0  0  0
    5.4421   17.2413    5.2824 C   0  0  0  0  0  0  0  0  0  0  0  0
    6.1244   17.7652    4.1797 C   0  0  0  0  0  0  0  0  0  0  0  0
    6.8467   18.9527    4.2810 C   0  0  0  0  0  0  0  0  0  0  0  0
  1  3  1  0  0  0  0
  1  5  1  0  0  0  0
  1  6  2  0  0  0  0
  2  5  2  0  0  0  0
  2 11  1  0  0  0  0
  2  4  1  0  0  0  0
  6 10  1  0  0  0  0
  7  8  2  0  0  0  0
  7 12  1  0  0  0  0
  8  9  1  0  0  0  0
  9 10  2  0  0  0  0
 10 11  1  0  0  0  0
 11 12  2  0  0  0  0
M  END
>  <CHROM.1>
5.69491707,17.22360877,4.40731766,2.24906524,-0.95462851,-2.01839561

>  <Name>
ligand

>  <RI>
0

>  <Rbt.Current_Directory>
/home/itssahil/PROJECTS/Mol_Feturizer/New_Systems/rnas/4LX5

>  <Rbt.Executable>
rbdock ($Id: //depot/dev/client3/rdock/2013.1/src/exe/rbdock.cxx#4 $)

>  <Rbt.Library>
libRbt.so (2013.1, Build901 2013/11/27)

>  <Rbt.Parameter_File>
/export/apps/rDock/src/rDock_2013.1_src/data/scripts/dock_solv.prm

>  <Rbt.Receptor>
prm/blind_docking_40.prm

>  <SCORE>
-15.0261

>  <SCORE.INTER>
-15.0261

>  <SCORE.INTER.CONST>
1

>  <SCORE.INTER.POLAR>
0

>  <SCORE.INTER.ROT>
0

>  <SCORE.INTER.SOLV>
15.6544

>  <SCORE.INTER.VDW>
-18.8356

>  <SCORE.INTER.norm>
-1.25218

>  <SCORE.INTRA>
0

>  <SCORE.INTRA.DIHEDRAL>
0

>  <SCORE.INTRA.DIHEDRAL.0>
0

>  <SCORE.INTRA.POLAR>
0

>  <SCORE.INTRA.POLAR.0>
0

>  <SCORE.INTRA.REPUL>
0

>  <SCORE.INTRA.REPUL.0>
0

>  <SCORE.INTRA.SOLV>
0

>  <SCORE.INTRA.SOLV.lig_0>
-48.1583

>  <SCORE.INTRA.VDW>
0

>  <SCORE.INTRA.VDW.0>
0

>  <SCORE.INTRA.norm>
0

>  <SCORE.RESTR>
0

>  <SCORE.RESTR.CAVITY>
0

>  <SCORE.RESTR.norm>
0

>  <SCORE.SYSTEM>
0

>  <SCORE.SYSTEM.CONST>
0

>  <SCORE.SYSTEM.DIHEDRAL>
0

>  <SCORE.SYSTEM.SOLV>
0

>  <SCORE.SYSTEM.norm>
0

>  <SCORE.heavy>
12

>  <SCORE.norm>
-1.25218

>  <RMSD>
3.043

$$$$
ligand
 OpenBabel11021811503D
libRbt.so/2013.1/901 2013/11/27
 12 13  0  0  0  0  0  0  0  0999 V2000
    4.6895   15.4202    3.9340 C   0  0  0  0  0  0  0  0  0  0  0  0
    6.0465   17.0397    2.9488 C   0  0  0  0  0  0  0  0  0  0  0  0
    4.0127   14.2805    3.8252 N   0  0  0  0  0  0  0  0  0  0  0  0
    6.6941   17.5657    1.9033 N   0  0  0  0  0  0  0  0  0  0  0  0
    5.3382   15.9066    2.8534 N   0  0  0  0  0  0  0  0  0  0  0  0
    4.7402   16.0569    5.1251 N   0  0  0  0  0  0  0  0  0  0  0  0
    6.8690   19.5842    5.5016 N   0  0  0  0  0  0  0  0  0  0  0  0
    6.1870   19.0458    6.6037 C   0  0  0  0  0  0  0  0  0  0  0  0
    5.4538   17.8443    6.4634 N   0  0  0  0  0  0  0  0  0  0  0  0
    5.4348   17.2130    5.2697 C   0  0  0  0  0  0  0  0  0  0  0  0
    6.1185   17.7305    4.1648 C   0  0  0  0  0  0  0  0  0  0  0  0
    6.8425   18.9175    4.2606 C   0  0  0  0  0  0  0  0  0  0  0  0
  1  3  1  0  0  0  0
  1  5  1  0  0  0  0
  1  6  2  0  0  0  0
  2  5  2  0  0  0  0
  2 11  1  0  0  0  0
  2  4  1  0  0  0  0
  6 10  1  0  0  0  0
  7  8  2  0  0  0  0
  7 12  1  0  0  0  0
  8  9  1  0  0  0  0
  9 10  2  0  0  0  0
 10 11  1  0  0  0  0
 11 12  2  0  0  0  0
M  END
>  <CHROM.1>
5.68809094,17.19066761,4.39480677,2.24919520,-0.95306443,-2.02324987

>  <Name>
ligand

>  <RI>
0

>  <Rbt.Current_Directory>
/home/itssahil/PROJECTS/Mol_Feturizer/New_Systems/rnas/4LX5

>  <Rbt.Executable>
rbdock ($Id: //depot/dev/client3/rdock/2013.1/src/exe/rbdock.cxx#4 $)

>  <Rbt.Library>
libRbt.so (2013.1, Build901 2013/11/27)

>  <Rbt.Parameter_File>
/export/apps/rDock/src/rDock_2013.1_src/data/scripts/dock_solv.prm

>  <Rbt.Receptor>
prm/pocket_docking_5.prm

>  <SCORE>
-15.017

>  <SCORE.INTER>
-15.017

>  <SCORE.INTER.CONST>
1

>  <SCORE.INTER.POLAR>
0

>  <SCORE.INTER.ROT>
0

>  <SCORE.INTER.SOLV>
15.6161

>  <SCORE.INTER.VDW>
-18.8167

>  <SCORE.INTER.norm>
-1.25141

>  <SCORE.INTRA>
0

>  <SCORE.INTRA.DIHEDRAL>
0

>  <SCORE.INTRA.DIHEDRAL.0>
0

>  <SCORE.INTRA.POLAR>
0

>  <SCORE.INTRA.POLAR.0>
0

>  <SCORE.INTRA.REPUL>
0

>  <SCORE.INTRA.REPUL.0>
0

>  <SCORE.INTRA.SOLV>
0

>  <SCORE.INTRA.SOLV.lig_0>
-48.1583

>  <SCORE.INTRA.VDW>
0

>  <SCORE.INTRA.VDW.0>
0

>  <SCORE.INTRA.norm>
0

>  <SCORE.RESTR>
0

>  <SCORE.RESTR.CAVITY>
0

>  <SCORE.RESTR.norm>
0

>  <SCORE.SYSTEM>
0

>  <SCORE.SYSTEM.CONST>
0

>  <SCORE.SYSTEM.DIHEDRAL>
0

>  <SCORE.SYSTEM.SOLV>
0

>  <SCORE.SYSTEM.norm>
0

>  <SCORE.heavy>
12

>  <SCORE.norm>
-1.25141

>  <RMSD>
3.043

$$$$
ligand
 OpenBabel11021811503D
libRbt.so/2013.1/901 2013/11/27
 12 13  0  0  0  0  0  0  0  0999 V2000
    4.7042   15.4507    3.9457 C   0  0  0  0  0  0  0  0  0  0  0  0
    6.0448   17.0780    2.9508 C   0  0  0  0  0  0  0  0  0  0  0  0
    4.0322   14.3077    3.8414 N   0  0  0  0  0  0  0  0  0  0  0  0
    6.6811   17.6081    1.9005 N   0  0  0  0  0  0  0  0  0  0  0  0
    5.3415   15.9414    2.8602 N   0  0  0  0  0  0  0  0  0  0  0  0
    4.7616   16.0867    5.1369 N   0  0  0  0  0  0  0  0  0  0  0  0
    6.8755   19.6243    5.4990 N   0  0  0  0  0  0  0  0  0  0  0  0
    6.2054   19.0815    6.6062 C   0  0  0  0  0  0  0  0  0  0  0  0
    5.4772   17.8765    6.4709 N   0  0  0  0  0  0  0  0  0  0  0  0
    5.4514   17.2462    5.2768 C   0  0  0  0  0  0  0  0  0  0  0  0
    6.1234   17.7680    4.1668 C   0  0  0  0  0  0  0  0  0  0  0  0
    6.8421   18.9586    4.2577 C   0  0  0  0  0  0  0  0  0  0  0  0
  1  3  1  0  0  0  0
  1  5  1  0  0  0  0
  1  6  2  0  0  0  0
  2  5  2  0  0  0  0
  2 11  1  0  0  0  0
  2  4  1  0  0  0  0
  6 10  1  0  0  0  0
  7  8  2  0  0  0  0
  7 12  1  0  0  0  0
  8  9  1  0  0  0  0
  9 10  2  0  0  0  0
 10 11  1  0  0  0  0
 11 12  2  0  0  0  0
M  END
>  <CHROM.1>
5.69762279,17.22585406,4.39984672,2.25834369,-0.96119610,-2.01487900

>  <Name>
ligand

>  <RI>
0

>  <Rbt.Current_Directory>
/home/itssahil/PROJECTS/Mol_Feturizer/New_Systems/rnas/4LX5

>  <Rbt.Executable>
rbdock ($Id: //depot/dev/client3/rdock/2013.1/src/exe/rbdock.cxx#4 $)

>  <Rbt.Library>
libRbt.so (2013.1, Build901 2013/11/27)

>  <Rbt.Parameter_File>
/export/apps/rDock/src/rDock_2013.1_src/data/scripts/dock_solv.prm

>  <Rbt.Receptor>
prm/pocket_docking_6.prm

>  <SCORE>
-15.0318

>  <SCORE.INTER>
-15.0318

>  <SCORE.INTER.CONST>
1

>  <SCORE.INTER.POLAR>
0

>  <SCORE.INTER.ROT>
0

>  <SCORE.INTER.SOLV>
15.7139

>  <SCORE.INTER.VDW>
-18.8592

>  <SCORE.INTER.norm>
-1.25265

>  <SCORE.INTRA>
0

>  <SCORE.INTRA.DIHEDRAL>
0

>  <SCORE.INTRA.DIHEDRAL.0>
0

>  <SCORE.INTRA.POLAR>
0

>  <SCORE.INTRA.POLAR.0>
0

>  <SCORE.INTRA.REPUL>
0

>  <SCORE.INTRA.REPUL.0>
0

>  <SCORE.INTRA.SOLV>
0

>  <SCORE.INTRA.SOLV.lig_0>
-48.1583

>  <SCORE.INTRA.VDW>
0

>  <SCORE.INTRA.VDW.0>
0

>  <SCORE.INTRA.norm>
0

>  <SCORE.RESTR>
0

>  <SCORE.RESTR.CAVITY>
0

>  <SCORE.RESTR.norm>
0

>  <SCORE.SYSTEM>
0

>  <SCORE.SYSTEM.CONST>
0

>  <SCORE.SYSTEM.DIHEDRAL>
0

>  <SCORE.SYSTEM.SOLV>
0

>  <SCORE.SYSTEM.norm>
0

>  <SCORE.heavy>
12

>  <SCORE.norm>
-1.25265

>  <RMSD>
3.043

$$$$
ligand
 OpenBabel11021811503D
libRbt.so/2013.1/901 2013/11/27
 12 13  0  0  0  0  0  0  0  0999 V2000
    4.3948   15.6918    3.8587 C   0  0  0  0  0  0  0  0  0  0  0  0
    5.9432   17.1180    2.8571 C   0  0  0  0  0  0  0  0  0  0  0  0
    3.5323   14.6858    3.7455 N   0  0  0  0  0  0  0  0  0  0  0  0
    6.6077   17.5863    1.7949 N   0  0  0  0  0  0  0  0  0  0  0  0
    5.0517   16.1229    2.7596 N   0  0  0  0  0  0  0  0  0  0  0  0
    4.6201   16.2467    5.0703 N   0  0  0  0  0  0  0  0  0  0  0  0
    7.3254   19.3525    5.4579 N   0  0  0  0  0  0  0  0  0  0  0  0
    6.6284   18.8745    6.5783 C   0  0  0  0  0  0  0  0  0  0  0  0
    5.6983   17.8186    6.4349 N   0  0  0  0  0  0  0  0  0  0  0  0
    5.5049   17.2641    5.2187 C   0  0  0  0  0  0  0  0  0  0  0  0
    6.2000   17.7212    4.0945 C   0  0  0  0  0  0  0  0  0  0  0  0
    7.1161   18.7669    4.1937 C   0  0  0  0  0  0  0  0  0  0  0  0
  1  3  1  0  0  0  0
  1  5  1  0  0  0  0
  1  6  2  0  0  0  0
  2  5  2  0  0  0  0
  2 11  1  0  0  0  0
  2  4  1  0  0  0  0
  6 10  1  0  0  0  0
  7  8  2  0  0  0  0
  7 12  1  0  0  0  0
  8  9  1  0  0  0  0
  9 10  2  0  0  0  0
 10 11  1  0  0  0  0
 11 12  2  0  0  0  0
M  END
>  <CHROM.1>
5.69970276,17.24761484,4.32882784,2.43342002,-0.81868992,-1.83107817

>  <Name>
ligand

>  <RI>
0

>  <Rbt.Current_Directory>
/home/itssahil/PROJECTS/Mol_Feturizer/New_Systems/rnas/4LX5

>  <Rbt.Executable>
rbdock ($Id: //depot/dev/client3/rdock/2013.1/src/exe/rbdock.cxx#4 $)

>  <Rbt.Library>
libRbt.so (2013.1, Build901 2013/11/27)

>  <Rbt.Parameter_File>
/export/apps/rDock/src/rDock_2013.1_src/data/scripts/dock_solv.prm

>  <Rbt.Receptor>
prm/pocket_docking_8.prm

>  <SCORE>
-14.0397

>  <SCORE.INTER>
-14.0397

>  <SCORE.INTER.CONST>
1

>  <SCORE.INTER.POLAR>
0

>  <SCORE.INTER.ROT>
0

>  <SCORE.INTER.SOLV>
13.6558

>  <SCORE.INTER.VDW>
-17.5118

>  <SCORE.INTER.norm>
-1.16998

>  <SCORE.INTRA>
0

>  <SCORE.INTRA.DIHEDRAL>
0

>  <SCORE.INTRA.DIHEDRAL.0>
0

>  <SCORE.INTRA.POLAR>
0

>  <SCORE.INTRA.POLAR.0>
0

>  <SCORE.INTRA.REPUL>
0

>  <SCORE.INTRA.REPUL.0>
0

>  <SCORE.INTRA.SOLV>
0

>  <SCORE.INTRA.SOLV.lig_0>
-48.1583

>  <SCORE.INTRA.VDW>
0

>  <SCORE.INTRA.VDW.0>
0

>  <SCORE.INTRA.norm>
0

>  <SCORE.RESTR>
0

>  <SCORE.RESTR.CAVITY>
0

>  <SCORE.RESTR.norm>
0

>  <SCORE.SYSTEM>
0

>  <SCORE.SYSTEM.CONST>
0

>  <SCORE.SYSTEM.DIHEDRAL>
0

>  <SCORE.SYSTEM.SOLV>
0

>  <SCORE.SYSTEM.norm>
0

>  <SCORE.heavy>
12

>  <SCORE.norm>
-1.16998

>  <RMSD>
3.043

$$$$
ligand
 OpenBabel11021811503D
libRbt.so/2013.1/901 2013/11/27
 12 13  0  0  0  0  0  0  0  0999 V2000
    4.6851   15.4864    3.9417 C   0  0  0  0  0  0  0  0  0  0  0  0
    6.0696   17.0837    2.9585 C   0  0  0  0  0  0  0  0  0  0  0  0
    3.9971   14.3533    3.8345 N   0  0  0  0  0  0  0  0  0  0  0  0
    6.7335   17.5947    1.9158 N   0  0  0  0  0  0  0  0  0  0  0  0
    5.3501   15.9576    2.8642 N   0  0  0  0  0  0  0  0  0  0  0  0
    4.7307   16.1316    5.1285 N   0  0  0  0  0  0  0  0  0  0  0  0
    6.8937   19.6384    5.5005 N   0  0  0  0  0  0  0  0  0  0  0  0
    6.1948   19.1157    6.5995 C   0  0  0  0  0  0  0  0  0  0  0  0
    5.4500   17.9212    6.4607 N   0  0  0  0  0  0  0  0  0  0  0  0
    5.4363   17.2812    5.2716 C   0  0  0  0  0  0  0  0  0  0  0  0
    6.1368   17.7828    4.1699 C   0  0  0  0  0  0  0  0  0  0  0  0
    6.8726   18.9626    4.2644 C   0  0  0  0  0  0  0  0  0  0  0  0
  1  3  1  0  0  0  0
  1  5  1  0  0  0  0
  1  6  2  0  0  0  0
  2  5  2  0  0  0  0
  2 11  1  0  0  0  0
  2  4  1  0  0  0  0
  6 10  1  0  0  0  0
  7  8  2  0  0  0  0
  7 12  1  0  0  0  0
  8  9  1  0  0  0  0
  9 10  2  0  0  0  0
 10 11  1  0  0  0  0
 11 12  2  0  0  0  0
M  END
>  <CHROM.1>
5.69819737,17.24946138,4.39955610,2.24176690,-0.93882255,-2.03678264

>  <Name>
ligand

>  <RI>
0

>  <Rbt.Current_Directory>
/home/itssahil/PROJECTS/Mol_Feturizer/New_Systems/rnas/4LX5

>  <Rbt.Executable>
rbdock ($Id: //depot/dev/client3/rdock/2013.1/src/exe/rbdock.cxx#4 $)

>  <Rbt.Library>
libRbt.so (2013.1, Build901 2013/11/27)

>  <Rbt.Parameter_File>
/export/apps/rDock/src/rDock_2013.1_src/data/scripts/dock_solv.prm

>  <Rbt.Receptor>
prm/pocket_docking_8.prm

>  <SCORE>
-15.0614

>  <SCORE.INTER>
-15.0614

>  <SCORE.INTER.CONST>
1

>  <SCORE.INTER.POLAR>
0

>  <SCORE.INTER.ROT>
0

>  <SCORE.INTER.SOLV>
15.5733

>  <SCORE.INTER.VDW>
-18.832

>  <SCORE.INTER.norm>
-1.25512

>  <SCORE.INTRA>
0

>  <SCORE.INTRA.DIHEDRAL>
0

>  <SCORE.INTRA.DIHEDRAL.0>
0

>  <SCORE.INTRA.POLAR>
0

>  <SCORE.INTRA.POLAR.0>
0

>  <SCORE.INTRA.REPUL>
0

>  <SCORE.INTRA.REPUL.0>
0

>  <SCORE.INTRA.SOLV>
0

>  <SCORE.INTRA.SOLV.lig_0>
-48.1583

>  <SCORE.INTRA.VDW>
0

>  <SCORE.INTRA.VDW.0>
0

>  <SCORE.INTRA.norm>
0

>  <SCORE.RESTR>
0

>  <SCORE.RESTR.CAVITY>
0

>  <SCORE.RESTR.norm>
0

>  <SCORE.SYSTEM>
0

>  <SCORE.SYSTEM.CONST>
0

>  <SCORE.SYSTEM.DIHEDRAL>
0

>  <SCORE.SYSTEM.SOLV>
0

>  <SCORE.SYSTEM.norm>
0

>  <SCORE.heavy>
12

>  <SCORE.norm>
-1.25512

>  <RMSD>
3.043

$$$$
ligand
 OpenBabel11021811503D
libRbt.so/2013.1/901 2013/11/27
 12 13  0  0  0  0  0  0  0  0999 V2000
    4.6877   15.5008    3.9389 C   0  0  0  0  0  0  0  0  0  0  0  0
    6.0996   17.0864    2.9758 C   0  0  0  0  0  0  0  0  0  0  0  0
    3.9909   14.3741    3.8213 N   0  0  0  0  0  0  0  0  0  0  0  0
    6.7819   17.5923    1.9427 N   0  0  0  0  0  0  0  0  0  0  0  0
    5.3712   15.9669    2.8708 N   0  0  0  0  0  0  0  0  0  0  0  0
    4.7234   16.1443    5.1269 N   0  0  0  0  0  0  0  0  0  0  0  0
    6.9132   19.6309    5.5314 N   0  0  0  0  0  0  0  0  0  0  0  0
    6.1950   19.1135    6.6205 C   0  0  0  0  0  0  0  0  0  0  0  0
    5.4413   17.9260    6.4705 N   0  0  0  0  0  0  0  0  0  0  0  0
    5.4375   17.2873    5.2806 C   0  0  0  0  0  0  0  0  0  0  0  0
    6.1571   17.7836    4.1889 C   0  0  0  0  0  0  0  0  0  0  0  0
    6.9023   18.9566    4.2944 C   0  0  0  0  0  0  0  0  0  0  0  0
  1  3  1  0  0  0  0
  1  5  1  0  0  0  0
  1  6  2  0  0  0  0
  2  5  2  0  0  0  0
  2 11  1  0  0  0  0
  2  4  1  0  0  0  0
  6 10  1  0  0  0  0
  7  8  2  0  0  0  0
  7 12  1  0  0  0  0
  8  9  1  0  0  0  0
  9 10  2  0  0  0  0
 10 11  1  0  0  0  0
 11 12  2  0  0  0  0
M  END
>  <CHROM.1>
5.71067520,17.25405053,4.41207608,2.22888170,-0.92469206,-2.04607875

>  <Name>
ligand

>  <RI>
0

>  <Rbt.Current_Directory>
/home/itssahil/PROJECTS/Mol_Feturizer/New_Systems/rnas/4LX5

>  <Rbt.Executable>
rbdock ($Id: //depot/dev/client3/rdock/2013.1/src/exe/rbdock.cxx#4 $)

>  <Rbt.Library>
libRbt.so (2013.1, Build901 2013/11/27)

>  <Rbt.Parameter_File>
/export/apps/rDock/src/rDock_2013.1_src/data/scripts/dock_solv.prm

>  <Rbt.Receptor>
prm/blind_docking_60.prm

>  <SCORE>
-15.0299

>  <SCORE.INTER>
-15.0313

>  <SCORE.INTER.CONST>
1

>  <SCORE.INTER.POLAR>
0

>  <SCORE.INTER.ROT>
0

>  <SCORE.INTER.SOLV>
15.5458

>  <SCORE.INTER.VDW>
-18.8028

>  <SCORE.INTER.norm>
-1.25261

>  <SCORE.INTRA>
0

>  <SCORE.INTRA.DIHEDRAL>
0

>  <SCORE.INTRA.DIHEDRAL.0>
0

>  <SCORE.INTRA.POLAR>
0

>  <SCORE.INTRA.POLAR.0>
0

>  <SCORE.INTRA.REPUL>
0

>  <SCORE.INTRA.REPUL.0>
0

>  <SCORE.INTRA.SOLV>
0

>  <SCORE.INTRA.SOLV.lig_0>
-48.1583

>  <SCORE.INTRA.VDW>
0

>  <SCORE.INTRA.VDW.0>
0

>  <SCORE.INTRA.norm>
0

>  <SCORE.RESTR>
0.00136226

>  <SCORE.RESTR.CAVITY>
0.00136226

>  <SCORE.RESTR.norm>
0.000113522

>  <SCORE.SYSTEM>
0

>  <SCORE.SYSTEM.CONST>
0

>  <SCORE.SYSTEM.DIHEDRAL>
0

>  <SCORE.SYSTEM.SOLV>
0

>  <SCORE.SYSTEM.norm>
0

>  <SCORE.heavy>
12

>  <SCORE.norm>
-1.25249

>  <RMSD>
3.044

$$$$
ligand
 OpenBabel11021811503D
libRbt.so/2013.1/901 2013/11/27
 12 13  0  0  0  0  0  0  0  0999 V2000
    4.6831   15.4864    3.9467 C   0  0  0  0  0  0  0  0  0  0  0  0
    6.0670   17.0799    2.9567 C   0  0  0  0  0  0  0  0  0  0  0  0
    3.9920   14.3547    3.8430 N   0  0  0  0  0  0  0  0  0  0  0  0
    6.7277   17.5888    1.9109 N   0  0  0  0  0  0  0  0  0  0  0  0
    5.3446   15.9554    2.8661 N   0  0  0  0  0  0  0  0  0  0  0  0
    4.7351   16.1321    5.1328 N   0  0  0  0  0  0  0  0  0  0  0  0
    6.9076   19.6342    5.4937 N   0  0  0  0  0  0  0  0  0  0  0  0
    6.2120   19.1138    6.5959 C   0  0  0  0  0  0  0  0  0  0  0  0
    5.4640   17.9209    6.4610 N   0  0  0  0  0  0  0  0  0  0  0  0
    5.4438   17.2802    5.2723 C   0  0  0  0  0  0  0  0  0  0  0  0
    6.1409   17.7796    4.1674 C   0  0  0  0  0  0  0  0  0  0  0  0
    6.8798   18.9578    4.2581 C   0  0  0  0  0  0  0  0  0  0  0  0
  1  3  1  0  0  0  0
  1  5  1  0  0  0  0
  1  6  2  0  0  0  0
  2  5  2  0  0  0  0
  2 11  1  0  0  0  0
  2  4  1  0  0  0  0
  6 10  1  0  0  0  0
  7  8  2  0  0  0  0
  7 12  1  0  0  0  0
  8  9  1  0  0  0  0
  9 10  2  0  0  0  0
 10 11  1  0  0  0  0
 11 12  2  0  0  0  0
M  END
>  <CHROM.1>
5.70204464,17.24737758,4.39919478,2.24981696,-0.93866683,-2.03088849

>  <Name>
ligand

>  <RI>
0

>  <Rbt.Current_Directory>
/home/itssahil/PROJECTS/Mol_Feturizer/New_Systems/rnas/4LX5

>  <Rbt.Executable>
rbdock ($Id: //depot/dev/client3/rdock/2013.1/src/exe/rbdock.cxx#4 $)

>  <Rbt.Library>
libRbt.so (2013.1, Build901 2013/11/27)

>  <Rbt.Parameter_File>
/export/apps/rDock/src/rDock_2013.1_src/data/scripts/dock_solv.prm

>  <Rbt.Receptor>
prm/blind_docking_80.prm

>  <SCORE>
-15.0662

>  <SCORE.INTER>
-15.0662

>  <SCORE.INTER.CONST>
1

>  <SCORE.INTER.POLAR>
0

>  <SCORE.INTER.ROT>
0

>  <SCORE.INTER.SOLV>
15.5491

>  <SCORE.INTER.VDW>
-18.8272

>  <SCORE.INTER.norm>
-1.25552

>  <SCORE.INTRA>
0

>  <SCORE.INTRA.DIHEDRAL>
0

>  <SCORE.INTRA.DIHEDRAL.0>
0

>  <SCORE.INTRA.POLAR>
0

>  <SCORE.INTRA.POLAR.0>
0

>  <SCORE.INTRA.REPUL>
0

>  <SCORE.INTRA.REPUL.0>
0

>  <SCORE.INTRA.SOLV>
0

>  <SCORE.INTRA.SOLV.lig_0>
-48.1583

>  <SCORE.INTRA.VDW>
0

>  <SCORE.INTRA.VDW.0>
0

>  <SCORE.INTRA.norm>
0

>  <SCORE.RESTR>
0

>  <SCORE.RESTR.CAVITY>
0

>  <SCORE.RESTR.norm>
0

>  <SCORE.SYSTEM>
0

>  <SCORE.SYSTEM.CONST>
0

>  <SCORE.SYSTEM.DIHEDRAL>
0

>  <SCORE.SYSTEM.SOLV>
0

>  <SCORE.SYSTEM.norm>
0

>  <SCORE.heavy>
12

>  <SCORE.norm>
-1.25552

>  <RMSD>
3.044

$$$$
ligand
 OpenBabel11021811503D
libRbt.so/2013.1/901 2013/11/27
 12 13  0  0  0  0  0  0  0  0999 V2000
    4.6878   15.4846    3.9504 C   0  0  0  0  0  0  0  0  0  0  0  0
    6.0598   17.0836    2.9526 C   0  0  0  0  0  0  0  0  0  0  0  0
    3.9992   14.3512    3.8502 N   0  0  0  0  0  0  0  0  0  0  0  0
    6.7112   17.5959    1.9027 N   0  0  0  0  0  0  0  0  0  0  0  0
    5.3399   15.9571    2.8657 N   0  0  0  0  0  0  0  0  0  0  0  0
    4.7468   16.1287    5.1372 N   0  0  0  0  0  0  0  0  0  0  0  0
    6.9120   19.6364    5.4872 N   0  0  0  0  0  0  0  0  0  0  0  0
    6.2262   19.1123    6.5938 C   0  0  0  0  0  0  0  0  0  0  0  0
    5.4806   17.9176    6.4626 N   0  0  0  0  0  0  0  0  0  0  0  0
    5.4534   17.2786    5.2731 C   0  0  0  0  0  0  0  0  0  0  0  0
    6.1407   17.7816    4.1638 C   0  0  0  0  0  0  0  0  0  0  0  0
    6.8769   18.9618    4.2507 C   0  0  0  0  0  0  0  0  0  0  0  0
  1  3  1  0  0  0  0
  1  5  1  0  0  0  0
  1  6  2  0  0  0  0
  2  5  2  0  0  0  0
  2 11  1  0  0  0  0
  2  4  1  0  0  0  0
  6 10  1  0  0  0  0
  7  8  2  0  0  0  0
  7 12  1  0  0  0  0
  8  9  1  0  0  0  0
  9 10  2  0  0  0  0
 10 11  1  0  0  0  0
 11 12  2  0  0  0  0
M  END
>  <CHROM.1>
5.70513321,17.24780923,4.39805056,2.25910131,-0.94450523,-2.02185413

>  <Name>
ligand

>  <RI>
0

>  <Rbt.Current_Directory>
/home/itssahil/PROJECTS/Mol_Feturizer/New_Systems/rnas/4LX5

>  <Rbt.Executable>
rbdock ($Id: //depot/dev/client3/rdock/2013.1/src/exe/rbdock.cxx#4 $)

>  <Rbt.Library>
libRbt.so (2013.1, Build901 2013/11/27)

>  <Rbt.Parameter_File>
/export/apps/rDock/src/rDock_2013.1_src/data/scripts/dock_solv.prm

>  <Rbt.Receptor>
prm/pocket_docking_4.prm

>  <SCORE>
-15.0719

>  <SCORE.INTER>
-15.0719

>  <SCORE.INTER.CONST>
1

>  <SCORE.INTER.POLAR>
0

>  <SCORE.INTER.ROT>
0

>  <SCORE.INTER.SOLV>
15.577

>  <SCORE.INTER.VDW>
-18.8403

>  <SCORE.INTER.norm>
-1.25599

>  <SCORE.INTRA>
0

>  <SCORE.INTRA.DIHEDRAL>
0

>  <SCORE.INTRA.DIHEDRAL.0>
0

>  <SCORE.INTRA.POLAR>
0

>  <SCORE.INTRA.POLAR.0>
0

>  <SCORE.INTRA.REPUL>
0

>  <SCORE.INTRA.REPUL.0>
0

>  <SCORE.INTRA.SOLV>
0

>  <SCORE.INTRA.SOLV.lig_0>
-48.1583

>  <SCORE.INTRA.VDW>
0

>  <SCORE.INTRA.VDW.0>
0

>  <SCORE.INTRA.norm>
0

>  <SCORE.RESTR>
0

>  <SCORE.RESTR.CAVITY>
0

>  <SCORE.RESTR.norm>
0

>  <SCORE.SYSTEM>
0

>  <SCORE.SYSTEM.CONST>
0

>  <SCORE.SYSTEM.DIHEDRAL>
0

>  <SCORE.SYSTEM.SOLV>
0

>  <SCORE.SYSTEM.norm>
0

>  <SCORE.heavy>
12

>  <SCORE.norm>
-1.25599

>  <RMSD>
3.044

$$$$
ligand
 OpenBabel11021811503D
libRbt.so/2013.1/901 2013/11/27
 12 13  0  0  0  0  0  0  0  0999 V2000
    4.6897   15.4211    3.9359 C   0  0  0  0  0  0  0  0  0  0  0  0
    6.0461   17.0398    2.9486 C   0  0  0  0  0  0  0  0  0  0  0  0
    4.0121   14.2817    3.8282 N   0  0  0  0  0  0  0  0  0  0  0  0
    6.6925   17.5653    1.9022 N   0  0  0  0  0  0  0  0  0  0  0  0
    5.3372   15.9070    2.8543 N   0  0  0  0  0  0  0  0  0  0  0  0
    4.7425   16.0580    5.1269 N   0  0  0  0  0  0  0  0  0  0  0  0
    6.8736   19.5842    5.4999 N   0  0  0  0  0  0  0  0  0  0  0  0
    6.1929   19.0462    6.6030 C   0  0  0  0  0  0  0  0  0  0  0  0
    5.4589   17.8451    6.4640 N   0  0  0  0  0  0  0  0  0  0  0  0
    5.4378   17.2137    5.2703 C   0  0  0  0  0  0  0  0  0  0  0  0
    6.1203   17.7307    4.1644 C   0  0  0  0  0  0  0  0  0  0  0  0
    6.8450   18.9173    4.2591 C   0  0  0  0  0  0  0  0  0  0  0  0
  1  3  1  0  0  0  0
  1  5  1  0  0  0  0
  1  6  2  0  0  0  0
  2  5  2  0  0  0  0
  2 11  1  0  0  0  0
  2  4  1  0  0  0  0
  6 10  1  0  0  0  0
  7  8  2  0  0  0  0
  7 12  1  0  0  0  0
  8  9  1  0  0  0  0
  9 10  2  0  0  0  0
 10 11  1  0  0  0  0
 11 12  2  0  0  0  0
M  END
>  <CHROM.1>
5.68989248,17.19112496,4.39511443,2.25181947,-0.95323152,-2.02122863

>  <Name>
ligand

>  <RI>
0

>  <Rbt.Current_Directory>
/home/itssahil/PROJECTS/Mol_Feturizer/New_Systems/rnas/4LX5

>  <Rbt.Executable>
rbdock ($Id: //depot/dev/client3/rdock/2013.1/src/exe/rbdock.cxx#4 $)

>  <Rbt.Library>
libRbt.so (2013.1, Build901 2013/11/27)

>  <Rbt.Parameter_File>
/export/apps/rDock/src/rDock_2013.1_src/data/scripts/dock_solv.prm

>  <Rbt.Receptor>
prm/pocket_docking_7.prm

>  <SCORE>
-15.0157

>  <SCORE.INTER>
-15.0157

>  <SCORE.INTER.CONST>
1

>  <SCORE.INTER.POLAR>
0

>  <SCORE.INTER.ROT>
0

>  <SCORE.INTER.SOLV>
15.6141

>  <SCORE.INTER.VDW>
-18.8152

>  <SCORE.INTER.norm>
-1.25131

>  <SCORE.INTRA>
0

>  <SCORE.INTRA.DIHEDRAL>
0

>  <SCORE.INTRA.DIHEDRAL.0>
0

>  <SCORE.INTRA.POLAR>
0

>  <SCORE.INTRA.POLAR.0>
0

>  <SCORE.INTRA.REPUL>
0

>  <SCORE.INTRA.REPUL.0>
0

>  <SCORE.INTRA.SOLV>
0

>  <SCORE.INTRA.SOLV.lig_0>
-48.1583

>  <SCORE.INTRA.VDW>
0

>  <SCORE.INTRA.VDW.0>
0

>  <SCORE.INTRA.norm>
0

>  <SCORE.RESTR>
0

>  <SCORE.RESTR.CAVITY>
0

>  <SCORE.RESTR.norm>
0

>  <SCORE.SYSTEM>
0

>  <SCORE.SYSTEM.CONST>
0

>  <SCORE.SYSTEM.DIHEDRAL>
0

>  <SCORE.SYSTEM.SOLV>
0

>  <SCORE.SYSTEM.norm>
0

>  <SCORE.heavy>
12

>  <SCORE.norm>
-1.25131

>  <RMSD>
3.044

$$$$
ligand
 OpenBabel11021811503D
libRbt.so/2013.1/901 2013/11/27
 12 13  0  0  0  0  0  0  0  0999 V2000
    4.6880   15.4763    3.9483 C   0  0  0  0  0  0  0  0  0  0  0  0
    6.0568   17.0771    2.9490 C   0  0  0  0  0  0  0  0  0  0  0  0
    4.0034   14.3402    3.8498 N   0  0  0  0  0  0  0  0  0  0  0  0
    6.7087   17.5887    1.8991 N   0  0  0  0  0  0  0  0  0  0  0  0
    5.3408   15.9480    2.8637 N   0  0  0  0  0  0  0  0  0  0  0  0
    4.7423   16.1238    5.1334 N   0  0  0  0  0  0  0  0  0  0  0  0
    6.8950   19.6398    5.4783 N   0  0  0  0  0  0  0  0  0  0  0  0
    6.2086   19.1164    6.5849 C   0  0  0  0  0  0  0  0  0  0  0  0
    5.4673   17.9188    6.4555 N   0  0  0  0  0  0  0  0  0  0  0  0
    5.4447   17.2764    5.2677 C   0  0  0  0  0  0  0  0  0  0  0  0
    6.1328   17.7787    4.1585 C   0  0  0  0  0  0  0  0  0  0  0  0
    6.8648   18.9616    4.2437 C   0  0  0  0  0  0  0  0  0  0  0  0
  1  3  1  0  0  0  0
  1  5  1  0  0  0  0
  1  6  2  0  0  0  0
  2  5  2  0  0  0  0
  2 11  1  0  0  0  0
  2  4  1  0  0  0  0
  6 10  1  0  0  0  0
  7  8  2  0  0  0  0
  7 12  1  0  0  0  0
  8  9  1  0  0  0  0
  9 10  2  0  0  0  0
 10 11  1  0  0  0  0
 11 12  2  0  0  0  0
M  END
>  <CHROM.1>
5.69846079,17.24410666,4.39324460,2.25330452,-0.94658647,-2.02931347

>  <Name>
ligand

>  <RI>
0

>  <Rbt.Current_Directory>
/home/itssahil/PROJECTS/Mol_Feturizer/New_Systems/rnas/4LX5

>  <Rbt.Executable>
rbdock ($Id: //depot/dev/client3/rdock/2013.1/src/exe/rbdock.cxx#4 $)

>  <Rbt.Library>
libRbt.so (2013.1, Build901 2013/11/27)

>  <Rbt.Parameter_File>
/export/apps/rDock/src/rDock_2013.1_src/data/scripts/dock_solv.prm

>  <Rbt.Receptor>
prm/pocket_docking_8.prm

>  <SCORE>
-15.0762

>  <SCORE.INTER>
-15.0762

>  <SCORE.INTER.CONST>
1

>  <SCORE.INTER.POLAR>
0

>  <SCORE.INTER.ROT>
0

>  <SCORE.INTER.SOLV>
15.6071

>  <SCORE.INTER.VDW>
-18.8531

>  <SCORE.INTER.norm>
-1.25635

>  <SCORE.INTRA>
0

>  <SCORE.INTRA.DIHEDRAL>
0

>  <SCORE.INTRA.DIHEDRAL.0>
0

>  <SCORE.INTRA.POLAR>
0

>  <SCORE.INTRA.POLAR.0>
0

>  <SCORE.INTRA.REPUL>
0

>  <SCORE.INTRA.REPUL.0>
0

>  <SCORE.INTRA.SOLV>
0

>  <SCORE.INTRA.SOLV.lig_0>
-48.1583

>  <SCORE.INTRA.VDW>
0

>  <SCORE.INTRA.VDW.0>
0

>  <SCORE.INTRA.norm>
0

>  <SCORE.RESTR>
0

>  <SCORE.RESTR.CAVITY>
0

>  <SCORE.RESTR.norm>
0

>  <SCORE.SYSTEM>
0

>  <SCORE.SYSTEM.CONST>
0

>  <SCORE.SYSTEM.DIHEDRAL>
0

>  <SCORE.SYSTEM.SOLV>
0

>  <SCORE.SYSTEM.norm>
0

>  <SCORE.heavy>
12

>  <SCORE.norm>
-1.25635

>  <RMSD>
3.044

$$$$
ligand
 OpenBabel11021811503D
libRbt.so/2013.1/901 2013/11/27
 12 13  0  0  0  0  0  0  0  0999 V2000
    4.6805   15.4785    3.9427 C   0  0  0  0  0  0  0  0  0  0  0  0
    6.0601   17.0814    2.9618 C   0  0  0  0  0  0  0  0  0  0  0  0
    3.9911   14.3466    3.8321 N   0  0  0  0  0  0  0  0  0  0  0  0
    6.7181   17.5990    1.9186 N   0  0  0  0  0  0  0  0  0  0  0  0
    5.3393   15.9564    2.8644 N   0  0  0  0  0  0  0  0  0  0  0  0
    4.7337   16.1157    5.1335 N   0  0  0  0  0  0  0  0  0  0  0  0
    6.9014   19.6185    5.5159 N   0  0  0  0  0  0  0  0  0  0  0  0
    6.2087   19.0889    6.6156 C   0  0  0  0  0  0  0  0  0  0  0  0
    5.4623   17.8959    6.4733 N   0  0  0  0  0  0  0  0  0  0  0  0
    5.4409   17.2638    5.2800 C   0  0  0  0  0  0  0  0  0  0  0  0
    6.1352   17.7724    4.1775 C   0  0  0  0  0  0  0  0  0  0  0  0
    6.8724   18.9510    4.2754 C   0  0  0  0  0  0  0  0  0  0  0  0
  1  3  1  0  0  0  0
  1  5  1  0  0  0  0
  1  6  2  0  0  0  0
  2  5  2  0  0  0  0
  2 11  1  0  0  0  0
  2  4  1  0  0  0  0
  6 10  1  0  0  0  0
  7  8  2  0  0  0  0
  7 12  1  0  0  0  0
  8  9  1  0  0  0  0
  9 10  2  0  0  0  0
 10 11  1  0  0  0  0
 11 12  2  0  0  0  0
M  END
>  <CHROM.1>
5.69758877,17.23777068,4.40621177,2.25147168,-0.94089592,-2.02225625

>  <Name>
ligand

>  <RI>
0

>  <Rbt.Current_Directory>
/home/itssahil/PROJECTS/Mol_Feturizer/New_Systems/rnas/4LX5

>  <Rbt.Executable>
rbdock ($Id: //depot/dev/client3/rdock/2013.1/src/exe/rbdock.cxx#4 $)

>  <Rbt.Library>
libRbt.so (2013.1, Build901 2013/11/27)

>  <Rbt.Parameter_File>
/export/apps/rDock/src/rDock_2013.1_src/data/scripts/dock_solv.prm

>  <Rbt.Receptor>
prm/pocket_docking_3.prm

>  <SCORE>
-15.0444

>  <SCORE.INTER>
-15.0444

>  <SCORE.INTER.CONST>
1

>  <SCORE.INTER.POLAR>
0

>  <SCORE.INTER.ROT>
0

>  <SCORE.INTER.SOLV>
15.5119

>  <SCORE.INTER.VDW>
-18.8002

>  <SCORE.INTER.norm>
-1.2537

>  <SCORE.INTRA>
0

>  <SCORE.INTRA.DIHEDRAL>
0

>  <SCORE.INTRA.DIHEDRAL.0>
0

>  <SCORE.INTRA.POLAR>
0

>  <SCORE.INTRA.POLAR.0>
0

>  <SCORE.INTRA.REPUL>
0

>  <SCORE.INTRA.REPUL.0>
0

>  <SCORE.INTRA.SOLV>
0

>  <SCORE.INTRA.SOLV.lig_0>
-48.1583

>  <SCORE.INTRA.VDW>
0

>  <SCORE.INTRA.VDW.0>
0

>  <SCORE.INTRA.norm>
0

>  <SCORE.RESTR>
0

>  <SCORE.RESTR.CAVITY>
0

>  <SCORE.RESTR.norm>
0

>  <SCORE.SYSTEM>
0

>  <SCORE.SYSTEM.CONST>
0

>  <SCORE.SYSTEM.DIHEDRAL>
0

>  <SCORE.SYSTEM.SOLV>
0

>  <SCORE.SYSTEM.norm>
0

>  <SCORE.heavy>
12

>  <SCORE.norm>
-1.2537

>  <RMSD>
3.045

$$$$
ligand
 OpenBabel11021811503D
libRbt.so/2013.1/901 2013/11/27
 12 13  0  0  0  0  0  0  0  0999 V2000
    4.6905   15.4735    3.9524 C   0  0  0  0  0  0  0  0  0  0  0  0
    6.0541   17.0775    2.9513 C   0  0  0  0  0  0  0  0  0  0  0  0
    4.0079   14.3362    3.8545 N   0  0  0  0  0  0  0  0  0  0  0  0
    6.7030   17.5910    1.9004 N   0  0  0  0  0  0  0  0  0  0  0  0
    5.3402   15.9471    2.8667 N   0  0  0  0  0  0  0  0  0  0  0  0
    4.7460   16.1204    5.1378 N   0  0  0  0  0  0  0  0  0  0  0  0
    6.8926   19.6403    5.4805 N   0  0  0  0  0  0  0  0  0  0  0  0
    6.2094   19.1150    6.5881 C   0  0  0  0  0  0  0  0  0  0  0  0
    5.4701   17.9160    6.4594 N   0  0  0  0  0  0  0  0  0  0  0  0
    5.4464   17.2743    5.2713 C   0  0  0  0  0  0  0  0  0  0  0  0
    6.1312   17.7786    4.1610 C   0  0  0  0  0  0  0  0  0  0  0  0
    6.8612   18.9628    4.2455 C   0  0  0  0  0  0  0  0  0  0  0  0
  1  3  1  0  0  0  0
  1  5  1  0  0  0  0
  1  6  2  0  0  0  0
  2  5  2  0  0  0  0
  2 11  1  0  0  0  0
  2  4  1  0  0  0  0
  6 10  1  0  0  0  0
  7  8  2  0  0  0  0
  7 12  1  0  0  0  0
  8  9  1  0  0  0  0
  9 10  2  0  0  0  0
 10 11  1  0  0  0  0
 11 12  2  0  0  0  0
M  END
>  <CHROM.1>
5.69844066,17.24299270,4.39633593,2.25495740,-0.94919309,-2.02737535

>  <Name>
ligand

>  <RI>
0

>  <Rbt.Current_Directory>
/home/itssahil/PROJECTS/Mol_Feturizer/New_Systems/rnas/4LX5

>  <Rbt.Executable>
rbdock ($Id: //depot/dev/client3/rdock/2013.1/src/exe/rbdock.cxx#4 $)

>  <Rbt.Library>
libRbt.so (2013.1, Build901 2013/11/27)

>  <Rbt.Parameter_File>
/export/apps/rDock/src/rDock_2013.1_src/data/scripts/dock_solv.prm

>  <Rbt.Receptor>
prm/pocket_docking_3.prm

>  <SCORE>
-15.0792

>  <SCORE.INTER>
-15.0792

>  <SCORE.INTER.CONST>
1

>  <SCORE.INTER.POLAR>
0

>  <SCORE.INTER.ROT>
0

>  <SCORE.INTER.SOLV>
15.6245

>  <SCORE.INTER.VDW>
-18.861

>  <SCORE.INTER.norm>
-1.2566

>  <SCORE.INTRA>
0

>  <SCORE.INTRA.DIHEDRAL>
0

>  <SCORE.INTRA.DIHEDRAL.0>
0

>  <SCORE.INTRA.POLAR>
0

>  <SCORE.INTRA.POLAR.0>
0

>  <SCORE.INTRA.REPUL>
0

>  <SCORE.INTRA.REPUL.0>
0

>  <SCORE.INTRA.SOLV>
0

>  <SCORE.INTRA.SOLV.lig_0>
-48.1583

>  <SCORE.INTRA.VDW>
0

>  <SCORE.INTRA.VDW.0>
0

>  <SCORE.INTRA.norm>
0

>  <SCORE.RESTR>
0

>  <SCORE.RESTR.CAVITY>
0

>  <SCORE.RESTR.norm>
0

>  <SCORE.SYSTEM>
0

>  <SCORE.SYSTEM.CONST>
0

>  <SCORE.SYSTEM.DIHEDRAL>
0

>  <SCORE.SYSTEM.SOLV>
0

>  <SCORE.SYSTEM.norm>
0

>  <SCORE.heavy>
12

>  <SCORE.norm>
-1.2566

>  <RMSD>
3.045

$$$$
ligand
 OpenBabel11021811503D
libRbt.so/2013.1/901 2013/11/27
 12 13  0  0  0  0  0  0  0  0999 V2000
    4.6845   15.4753    3.9512 C   0  0  0  0  0  0  0  0  0  0  0  0
    6.0482   17.0778    2.9477 C   0  0  0  0  0  0  0  0  0  0  0  0
    4.0006   14.3387    3.8545 N   0  0  0  0  0  0  0  0  0  0  0  0
    6.6959   17.5906    1.8957 N   0  0  0  0  0  0  0  0  0  0  0  0
    5.3330   15.9482    2.8644 N   0  0  0  0  0  0  0  0  0  0  0  0
    4.7426   16.1222    5.1364 N   0  0  0  0  0  0  0  0  0  0  0  0
    6.8936   19.6398    5.4754 N   0  0  0  0  0  0  0  0  0  0  0  0
    6.2117   19.1153    6.5842 C   0  0  0  0  0  0  0  0  0  0  0  0
    5.4709   17.9171    6.4568 N   0  0  0  0  0  0  0  0  0  0  0  0
    5.4445   17.2754    5.2687 C   0  0  0  0  0  0  0  0  0  0  0  0
    6.1281   17.7789    4.1573 C   0  0  0  0  0  0  0  0  0  0  0  0
    6.8594   18.9623    4.2405 C   0  0  0  0  0  0  0  0  0  0  0  0
  1  3  1  0  0  0  0
  1  5  1  0  0  0  0
  1  6  2  0  0  0  0
  2  5  2  0  0  0  0
  2 11  1  0  0  0  0
  2  4  1  0  0  0  0
  6 10  1  0  0  0  0
  7  8  2  0  0  0  0
  7 12  1  0  0  0  0
  8  9  1  0  0  0  0
  9 10  2  0  0  0  0
 10 11  1  0  0  0  0
 11 12  2  0  0  0  0
M  END
>  <CHROM.1>
5.69508423,17.24373612,4.39336967,2.25829287,-0.94896758,-2.02470959

>  <Name>
ligand

>  <RI>
0

>  <Rbt.Current_Directory>
/home/itssahil/PROJECTS/Mol_Feturizer/New_Systems/rnas/4LX5

>  <Rbt.Executable>
rbdock ($Id: //depot/dev/client3/rdock/2013.1/src/exe/rbdock.cxx#4 $)

>  <Rbt.Library>
libRbt.so (2013.1, Build901 2013/11/27)

>  <Rbt.Parameter_File>
/export/apps/rDock/src/rDock_2013.1_src/data/scripts/dock_solv.prm

>  <Rbt.Receptor>
prm/pocket_docking_3.prm

>  <SCORE>
-15.0821

>  <SCORE.INTER>
-15.0821

>  <SCORE.INTER.CONST>
1

>  <SCORE.INTER.POLAR>
0

>  <SCORE.INTER.ROT>
0

>  <SCORE.INTER.SOLV>
15.5837

>  <SCORE.INTER.VDW>
-18.8493

>  <SCORE.INTER.norm>
-1.25684

>  <SCORE.INTRA>
0

>  <SCORE.INTRA.DIHEDRAL>
0

>  <SCORE.INTRA.DIHEDRAL.0>
0

>  <SCORE.INTRA.POLAR>
0

>  <SCORE.INTRA.POLAR.0>
0

>  <SCORE.INTRA.REPUL>
0

>  <SCORE.INTRA.REPUL.0>
0

>  <SCORE.INTRA.SOLV>
0

>  <SCORE.INTRA.SOLV.lig_0>
-48.1583

>  <SCORE.INTRA.VDW>
0

>  <SCORE.INTRA.VDW.0>
0

>  <SCORE.INTRA.norm>
0

>  <SCORE.RESTR>
0

>  <SCORE.RESTR.CAVITY>
0

>  <SCORE.RESTR.norm>
0

>  <SCORE.SYSTEM>
0

>  <SCORE.SYSTEM.CONST>
0

>  <SCORE.SYSTEM.DIHEDRAL>
0

>  <SCORE.SYSTEM.SOLV>
0

>  <SCORE.SYSTEM.norm>
0

>  <SCORE.heavy>
12

>  <SCORE.norm>
-1.25684

>  <RMSD>
3.045

$$$$
ligand
 OpenBabel11021811503D
libRbt.so/2013.1/901 2013/11/27
 12 13  0  0  0  0  0  0  0  0999 V2000
    4.6837   15.4790    3.9461 C   0  0  0  0  0  0  0  0  0  0  0  0
    6.0612   17.0800    2.9591 C   0  0  0  0  0  0  0  0  0  0  0  0
    3.9939   14.3469    3.8391 N   0  0  0  0  0  0  0  0  0  0  0  0
    6.7169   17.5956    1.9135 N   0  0  0  0  0  0  0  0  0  0  0  0
    5.3401   15.9549    2.8654 N   0  0  0  0  0  0  0  0  0  0  0  0
    4.7396   16.1184    5.1355 N   0  0  0  0  0  0  0  0  0  0  0  0
    6.9084   19.6217    5.5066 N   0  0  0  0  0  0  0  0  0  0  0  0
    6.2182   19.0942    6.6088 C   0  0  0  0  0  0  0  0  0  0  0  0
    5.4714   17.9010    6.4705 N   0  0  0  0  0  0  0  0  0  0  0  0
    5.4472   17.2667    5.2784 C   0  0  0  0  0  0  0  0  0  0  0  0
    6.1390   17.7732    4.1734 C   0  0  0  0  0  0  0  0  0  0  0  0
    6.8765   18.9520    4.2674 C   0  0  0  0  0  0  0  0  0  0  0  0
  1  3  1  0  0  0  0
  1  5  1  0  0  0  0
  1  6  2  0  0  0  0
  2  5  2  0  0  0  0
  2 11  1  0  0  0  0
  2  4  1  0  0  0  0
  6 10  1  0  0  0  0
  7  8  2  0  0  0  0
  7 12  1  0  0  0  0
  8  9  1  0  0  0  0
  9 10  2  0  0  0  0
 10 11  1  0  0  0  0
 11 12  2  0  0  0  0
M  END
>  <CHROM.1>
5.70191446,17.23903970,4.40404500,2.25497285,-0.94179356,-2.02125817

>  <Name>
ligand

>  <RI>
0

>  <Rbt.Current_Directory>
/home/itssahil/PROJECTS/Mol_Feturizer/New_Systems/rnas/4LX5

>  <Rbt.Executable>
rbdock ($Id: //depot/dev/client3/rdock/2013.1/src/exe/rbdock.cxx#4 $)

>  <Rbt.Library>
libRbt.so (2013.1, Build901 2013/11/27)

>  <Rbt.Parameter_File>
/export/apps/rDock/src/rDock_2013.1_src/data/scripts/dock_solv.prm

>  <Rbt.Receptor>
prm/pocket_docking_3.prm

>  <SCORE>
-15.042

>  <SCORE.INTER>
-15.042

>  <SCORE.INTER.CONST>
1

>  <SCORE.INTER.POLAR>
0

>  <SCORE.INTER.ROT>
0

>  <SCORE.INTER.SOLV>
15.535

>  <SCORE.INTER.VDW>
-18.8063

>  <SCORE.INTER.norm>
-1.2535

>  <SCORE.INTRA>
0

>  <SCORE.INTRA.DIHEDRAL>
0

>  <SCORE.INTRA.DIHEDRAL.0>
0

>  <SCORE.INTRA.POLAR>
0

>  <SCORE.INTRA.POLAR.0>
0

>  <SCORE.INTRA.REPUL>
0

>  <SCORE.INTRA.REPUL.0>
0

>  <SCORE.INTRA.SOLV>
0

>  <SCORE.INTRA.SOLV.lig_0>
-48.1583

>  <SCORE.INTRA.VDW>
0

>  <SCORE.INTRA.VDW.0>
0

>  <SCORE.INTRA.norm>
0

>  <SCORE.RESTR>
0

>  <SCORE.RESTR.CAVITY>
0

>  <SCORE.RESTR.norm>
0

>  <SCORE.SYSTEM>
0

>  <SCORE.SYSTEM.CONST>
0

>  <SCORE.SYSTEM.DIHEDRAL>
0

>  <SCORE.SYSTEM.SOLV>
0

>  <SCORE.SYSTEM.norm>
0

>  <SCORE.heavy>
12

>  <SCORE.norm>
-1.2535

>  <RMSD>
3.045

$$$$
ligand
 OpenBabel11021811503D
libRbt.so/2013.1/901 2013/11/27
 12 13  0  0  0  0  0  0  0  0999 V2000
    4.6888   15.4730    3.9573 C   0  0  0  0  0  0  0  0  0  0  0  0
    6.0461   17.0774    2.9482 C   0  0  0  0  0  0  0  0  0  0  0  0
    4.0057   14.3358    3.8633 N   0  0  0  0  0  0  0  0  0  0  0  0
    6.6884   17.5913    1.8934 N   0  0  0  0  0  0  0  0  0  0  0  0
    5.3317   15.9470    2.8677 N   0  0  0  0  0  0  0  0  0  0  0  0
    4.7518   16.1195    5.1425 N   0  0  0  0  0  0  0  0  0  0  0  0
    6.9005   19.6393    5.4730 N   0  0  0  0  0  0  0  0  0  0  0  0
    6.2243   19.1135    6.5847 C   0  0  0  0  0  0  0  0  0  0  0  0
    5.4842   17.9146    6.4602 N   0  0  0  0  0  0  0  0  0  0  0  0
    5.4530   17.2734    5.2720 C   0  0  0  0  0  0  0  0  0  0  0  0
    6.1309   17.7780    4.1576 C   0  0  0  0  0  0  0  0  0  0  0  0
    6.8613   18.9622    4.2380 C   0  0  0  0  0  0  0  0  0  0  0  0
  1  3  1  0  0  0  0
  1  5  1  0  0  0  0
  1  6  2  0  0  0  0
  2  5  2  0  0  0  0
  2 11  1  0  0  0  0
  2  4  1  0  0  0  0
  6 10  1  0  0  0  0
  7  8  2  0  0  0  0
  7 12  1  0  0  0  0
  8  9  1  0  0  0  0
  9 10  2  0  0  0  0
 10 11  1  0  0  0  0
 11 12  2  0  0  0  0
M  END
>  <CHROM.1>
5.69955732,17.24235093,4.39550837,2.26469307,-0.95195396,-2.01908338

>  <Name>
ligand

>  <RI>
0

>  <Rbt.Current_Directory>
/home/itssahil/PROJECTS/Mol_Feturizer/New_Systems/rnas/4LX5

>  <Rbt.Executable>
rbdock ($Id: //depot/dev/client3/rdock/2013.1/src/exe/rbdock.cxx#4 $)

>  <Rbt.Library>
libRbt.so (2013.1, Build901 2013/11/27)

>  <Rbt.Parameter_File>
/export/apps/rDock/src/rDock_2013.1_src/data/scripts/dock_solv.prm

>  <Rbt.Receptor>
prm/pocket_docking_4.prm

>  <SCORE>
-15.0829

>  <SCORE.INTER>
-15.0829

>  <SCORE.INTER.CONST>
1

>  <SCORE.INTER.POLAR>
0

>  <SCORE.INTER.ROT>
0

>  <SCORE.INTER.SOLV>
15.6066

>  <SCORE.INTER.VDW>
-18.8575

>  <SCORE.INTER.norm>
-1.25691

>  <SCORE.INTRA>
0

>  <SCORE.INTRA.DIHEDRAL>
0

>  <SCORE.INTRA.DIHEDRAL.0>
0

>  <SCORE.INTRA.POLAR>
0

>  <SCORE.INTRA.POLAR.0>
0

>  <SCORE.INTRA.REPUL>
0

>  <SCORE.INTRA.REPUL.0>
0

>  <SCORE.INTRA.SOLV>
0

>  <SCORE.INTRA.SOLV.lig_0>
-48.1583

>  <SCORE.INTRA.VDW>
0

>  <SCORE.INTRA.VDW.0>
0

>  <SCORE.INTRA.norm>
0

>  <SCORE.RESTR>
0

>  <SCORE.RESTR.CAVITY>
0

>  <SCORE.RESTR.norm>
0

>  <SCORE.SYSTEM>
0

>  <SCORE.SYSTEM.CONST>
0

>  <SCORE.SYSTEM.DIHEDRAL>
0

>  <SCORE.SYSTEM.SOLV>
0

>  <SCORE.SYSTEM.norm>
0

>  <SCORE.heavy>
12

>  <SCORE.norm>
-1.25691

>  <RMSD>
3.045

$$$$
ligand
 OpenBabel11021811503D
libRbt.so/2013.1/901 2013/11/27
 12 13  0  0  0  0  0  0  0  0999 V2000
    4.6896   15.4808    3.9486 C   0  0  0  0  0  0  0  0  0  0  0  0
    6.0646   17.0830    2.9600 C   0  0  0  0  0  0  0  0  0  0  0  0
    4.0051   14.3453    3.8441 N   0  0  0  0  0  0  0  0  0  0  0  0
    6.7226   17.5963    1.9147 N   0  0  0  0  0  0  0  0  0  0  0  0
    5.3487   15.9543    2.8685 N   0  0  0  0  0  0  0  0  0  0  0  0
    4.7375   16.1261    5.1352 N   0  0  0  0  0  0  0  0  0  0  0  0
    6.8898   19.6405    5.4988 N   0  0  0  0  0  0  0  0  0  0  0  0
    6.1969   19.1154    6.6005 C   0  0  0  0  0  0  0  0  0  0  0  0
    5.4558   17.9183    6.4646 N   0  0  0  0  0  0  0  0  0  0  0  0
    5.4396   17.2782    5.2756 C   0  0  0  0  0  0  0  0  0  0  0  0
    6.1341   17.7823    4.1712 C   0  0  0  0  0  0  0  0  0  0  0  0
    6.8661   18.9647    4.2627 C   0  0  0  0  0  0  0  0  0  0  0  0
  1  3  1  0  0  0  0
  1  5  1  0  0  0  0
  1  6  2  0  0  0  0
  2  5  2  0  0  0  0
  2 11  1  0  0  0  0
  2  4  1  0  0  0  0
  6 10  1  0  0  0  0
  7  8  2  0  0  0  0
  7 12  1  0  0  0  0
  8  9  1  0  0  0  0
  9 10  2  0  0  0  0
 10 11  1  0  0  0  0
 11 12  2  0  0  0  0
M  END
>  <CHROM.1>
5.69827527,17.24739040,4.40249877,2.24506836,-0.94370738,-2.03410523

>  <Name>
ligand

>  <RI>
0

>  <Rbt.Current_Directory>
/home/itssahil/PROJECTS/Mol_Feturizer/New_Systems/rnas/4LX5

>  <Rbt.Executable>
rbdock ($Id: //depot/dev/client3/rdock/2013.1/src/exe/rbdock.cxx#4 $)

>  <Rbt.Library>
libRbt.so (2013.1, Build901 2013/11/27)

>  <Rbt.Parameter_File>
/export/apps/rDock/src/rDock_2013.1_src/data/scripts/dock_solv.prm

>  <Rbt.Receptor>
prm/pocket_docking_4.prm

>  <SCORE>
-15.0664

>  <SCORE.INTER>
-15.0664

>  <SCORE.INTER.CONST>
1

>  <SCORE.INTER.POLAR>
0

>  <SCORE.INTER.ROT>
0

>  <SCORE.INTER.SOLV>
15.6108

>  <SCORE.INTER.VDW>
-18.8479

>  <SCORE.INTER.norm>
-1.25553

>  <SCORE.INTRA>
0

>  <SCORE.INTRA.DIHEDRAL>
0

>  <SCORE.INTRA.DIHEDRAL.0>
0

>  <SCORE.INTRA.POLAR>
0

>  <SCORE.INTRA.POLAR.0>
0

>  <SCORE.INTRA.REPUL>
0

>  <SCORE.INTRA.REPUL.0>
0

>  <SCORE.INTRA.SOLV>
0

>  <SCORE.INTRA.SOLV.lig_0>
-48.1583

>  <SCORE.INTRA.VDW>
0

>  <SCORE.INTRA.VDW.0>
0

>  <SCORE.INTRA.norm>
0

>  <SCORE.RESTR>
0

>  <SCORE.RESTR.CAVITY>
0

>  <SCORE.RESTR.norm>
0

>  <SCORE.SYSTEM>
0

>  <SCORE.SYSTEM.CONST>
0

>  <SCORE.SYSTEM.DIHEDRAL>
0

>  <SCORE.SYSTEM.SOLV>
0

>  <SCORE.SYSTEM.norm>
0

>  <SCORE.heavy>
12

>  <SCORE.norm>
-1.25553

>  <RMSD>
3.045

$$$$
ligand
 OpenBabel11021811503D
libRbt.so/2013.1/901 2013/11/27
 12 13  0  0  0  0  0  0  0  0999 V2000
    4.6863   15.4760    3.9564 C   0  0  0  0  0  0  0  0  0  0  0  0
    6.0445   17.0796    2.9472 C   0  0  0  0  0  0  0  0  0  0  0  0
    4.0018   14.3396    3.8623 N   0  0  0  0  0  0  0  0  0  0  0  0
    6.6863   17.5935    1.8922 N   0  0  0  0  0  0  0  0  0  0  0  0
    5.3287   15.9500    2.8666 N   0  0  0  0  0  0  0  0  0  0  0  0
    4.7511   16.1216    5.1420 N   0  0  0  0  0  0  0  0  0  0  0  0
    6.9041   19.6387    5.4730 N   0  0  0  0  0  0  0  0  0  0  0  0
    6.2283   19.1129    6.5850 C   0  0  0  0  0  0  0  0  0  0  0  0
    5.4868   17.9149    6.4603 N   0  0  0  0  0  0  0  0  0  0  0  0
    5.4537   17.2745    5.2717 C   0  0  0  0  0  0  0  0  0  0  0  0
    6.1311   17.7792    4.1571 C   0  0  0  0  0  0  0  0  0  0  0  0
    6.8630   18.9625    4.2375 C   0  0  0  0  0  0  0  0  0  0  0  0
  1  3  1  0  0  0  0
  1  5  1  0  0  0  0
  1  6  2  0  0  0  0
  2  5  2  0  0  0  0
  2 11  1  0  0  0  0
  2  4  1  0  0  0  0
  6 10  1  0  0  0  0
  7  8  2  0  0  0  0
  7 12  1  0  0  0  0
  8  9  1  0  0  0  0
  9 10  2  0  0  0  0
 10 11  1  0  0  0  0
 11 12  2  0  0  0  0
M  END
>  <CHROM.1>
5.69943717,17.24387330,4.39494288,2.26696424,-0.95132914,-2.01653361

>  <Name>
ligand

>  <RI>
0

>  <Rbt.Current_Directory>
/home/itssahil/PROJECTS/Mol_Feturizer/New_Systems/rnas/4LX5

>  <Rbt.Executable>
rbdock ($Id: //depot/dev/client3/rdock/2013.1/src/exe/rbdock.cxx#4 $)

>  <Rbt.Library>
libRbt.so (2013.1, Build901 2013/11/27)

>  <Rbt.Parameter_File>
/export/apps/rDock/src/rDock_2013.1_src/data/scripts/dock_solv.prm

>  <Rbt.Receptor>
prm/pocket_docking_7.prm

>  <SCORE>
-15.0829

>  <SCORE.INTER>
-15.0829

>  <SCORE.INTER.CONST>
1

>  <SCORE.INTER.POLAR>
0

>  <SCORE.INTER.ROT>
0

>  <SCORE.INTER.SOLV>
15.5831

>  <SCORE.INTER.VDW>
-18.8496

>  <SCORE.INTER.norm>
-1.25691

>  <SCORE.INTRA>
0

>  <SCORE.INTRA.DIHEDRAL>
0

>  <SCORE.INTRA.DIHEDRAL.0>
0

>  <SCORE.INTRA.POLAR>
0

>  <SCORE.INTRA.POLAR.0>
0

>  <SCORE.INTRA.REPUL>
0

>  <SCORE.INTRA.REPUL.0>
0

>  <SCORE.INTRA.SOLV>
0

>  <SCORE.INTRA.SOLV.lig_0>
-48.1583

>  <SCORE.INTRA.VDW>
0

>  <SCORE.INTRA.VDW.0>
0

>  <SCORE.INTRA.norm>
0

>  <SCORE.RESTR>
0

>  <SCORE.RESTR.CAVITY>
0

>  <SCORE.RESTR.norm>
0

>  <SCORE.SYSTEM>
0

>  <SCORE.SYSTEM.CONST>
0

>  <SCORE.SYSTEM.DIHEDRAL>
0

>  <SCORE.SYSTEM.SOLV>
0

>  <SCORE.SYSTEM.norm>
0

>  <SCORE.heavy>
12

>  <SCORE.norm>
-1.25691

>  <RMSD>
3.045

$$$$
ligand
 OpenBabel11021811503D
libRbt.so/2013.1/901 2013/11/27
 12 13  0  0  0  0  0  0  0  0999 V2000
    4.6959   15.3939    3.9524 C   0  0  0  0  0  0  0  0  0  0  0  0
    6.0102   17.0249    2.9292 C   0  0  0  0  0  0  0  0  0  0  0  0
    4.0335   14.2438    3.8652 N   0  0  0  0  0  0  0  0  0  0  0  0
    6.6299   17.5520    1.8675 N   0  0  0  0  0  0  0  0  0  0  0  0
    5.3166   15.8812    2.8559 N   0  0  0  0  0  0  0  0  0  0  0  0
    4.7605   16.0403    5.1376 N   0  0  0  0  0  0  0  0  0  0  0  0
    6.8453   19.6002    5.4468 N   0  0  0  0  0  0  0  0  0  0  0  0
    6.1925   19.0606    6.5658 C   0  0  0  0  0  0  0  0  0  0  0  0
    5.4741   17.8478    6.4487 N   0  0  0  0  0  0  0  0  0  0  0  0
    5.4410   17.2072    5.2602 C   0  0  0  0  0  0  0  0  0  0  0  0
    6.0958   17.7259    4.1384 C   0  0  0  0  0  0  0  0  0  0  0  0
    6.8044   18.9238    4.2115 C   0  0  0  0  0  0  0  0  0  0  0  0
  1  3  1  0  0  0  0
  1  5  1  0  0  0  0
  1  6  2  0  0  0  0
  2  5  2  0  0  0  0
  2 11  1  0  0  0  0
  2  4  1  0  0  0  0
  6 10  1  0  0  0  0
  7  8  2  0  0  0  0
  7 12  1  0  0  0  0
  8  9  1  0  0  0  0
  9 10  2  0  0  0  0
 10 11  1  0  0  0  0
 11 12  2  0  0  0  0
M  END
>  <CHROM.1>
5.67770482,17.18180614,4.38076154,2.26895565,-0.97432196,-2.01450654

>  <Name>
ligand

>  <RI>
0

>  <Rbt.Current_Directory>
/home/itssahil/PROJECTS/Mol_Feturizer/New_Systems/rnas/4LX5

>  <Rbt.Executable>
rbdock ($Id: //depot/dev/client3/rdock/2013.1/src/exe/rbdock.cxx#4 $)

>  <Rbt.Library>
libRbt.so (2013.1, Build901 2013/11/27)

>  <Rbt.Parameter_File>
/export/apps/rDock/src/rDock_2013.1_src/data/scripts/dock_solv.prm

>  <Rbt.Receptor>
prm/pocket_docking_8.prm

>  <SCORE>
-15.0391

>  <SCORE.INTER>
-15.0391

>  <SCORE.INTER.CONST>
1

>  <SCORE.INTER.POLAR>
0

>  <SCORE.INTER.ROT>
0

>  <SCORE.INTER.SOLV>
15.7098

>  <SCORE.INTER.VDW>
-18.8627

>  <SCORE.INTER.norm>
-1.25326

>  <SCORE.INTRA>
0

>  <SCORE.INTRA.DIHEDRAL>
0

>  <SCORE.INTRA.DIHEDRAL.0>
0

>  <SCORE.INTRA.POLAR>
0

>  <SCORE.INTRA.POLAR.0>
0

>  <SCORE.INTRA.REPUL>
0

>  <SCORE.INTRA.REPUL.0>
0

>  <SCORE.INTRA.SOLV>
0

>  <SCORE.INTRA.SOLV.lig_0>
-48.1583

>  <SCORE.INTRA.VDW>
0

>  <SCORE.INTRA.VDW.0>
0

>  <SCORE.INTRA.norm>
0

>  <SCORE.RESTR>
0

>  <SCORE.RESTR.CAVITY>
0

>  <SCORE.RESTR.norm>
0

>  <SCORE.SYSTEM>
0

>  <SCORE.SYSTEM.CONST>
0

>  <SCORE.SYSTEM.DIHEDRAL>
0

>  <SCORE.SYSTEM.SOLV>
0

>  <SCORE.SYSTEM.norm>
0

>  <SCORE.heavy>
12

>  <SCORE.norm>
-1.25326

>  <RMSD>
3.045

$$$$
ligand
 OpenBabel11021811503D
libRbt.so/2013.1/901 2013/11/27
 12 13  0  0  0  0  0  0  0  0999 V2000
    4.7002   15.4750    3.9557 C   0  0  0  0  0  0  0  0  0  0  0  0
    6.0656   17.0818    2.9614 C   0  0  0  0  0  0  0  0  0  0  0  0
    4.0192   14.3371    3.8540 N   0  0  0  0  0  0  0  0  0  0  0  0
    6.7175   17.5975    1.9135 N   0  0  0  0  0  0  0  0  0  0  0  0
    5.3531   15.9508    2.8729 N   0  0  0  0  0  0  0  0  0  0  0  0
    4.7510   16.1203    5.1422 N   0  0  0  0  0  0  0  0  0  0  0  0
    6.8928   19.6419    5.4970 N   0  0  0  0  0  0  0  0  0  0  0  0
    6.2064   19.1144    6.6016 C   0  0  0  0  0  0  0  0  0  0  0  0
    5.4688   17.9148    6.4688 N   0  0  0  0  0  0  0  0  0  0  0  0
    5.4498   17.2748    5.2797 C   0  0  0  0  0  0  0  0  0  0  0  0
    6.1379   17.7813    4.1724 C   0  0  0  0  0  0  0  0  0  0  0  0
    6.8663   18.9661    4.2610 C   0  0  0  0  0  0  0  0  0  0  0  0
  1  3  1  0  0  0  0
  1  5  1  0  0  0  0
  1  6  2  0  0  0  0
  2  5  2  0  0  0  0
  2 11  1  0  0  0  0
  2  4  1  0  0  0  0
  6 10  1  0  0  0  0
  7  8  2  0  0  0  0
  7 12  1  0  0  0  0
  8  9  1  0  0  0  0
  9 10  2  0  0  0  0
 10 11  1  0  0  0  0
 11 12  2  0  0  0  0
M  END
>  <CHROM.1>
5.70482423,17.24491198,4.40553836,2.24894381,-0.94862394,-2.03086962

>  <Name>
ligand

>  <RI>
0

>  <Rbt.Current_Directory>
/home/itssahil/PROJECTS/Mol_Feturizer/New_Systems/rnas/4LX5

>  <Rbt.Executable>
rbdock ($Id: //depot/dev/client3/rdock/2013.1/src/exe/rbdock.cxx#4 $)

>  <Rbt.Library>
libRbt.so (2013.1, Build901 2013/11/27)

>  <Rbt.Parameter_File>
/export/apps/rDock/src/rDock_2013.1_src/data/scripts/dock_solv.prm

>  <Rbt.Receptor>
prm/pocket_docking_8.prm

>  <SCORE>
-15.069

>  <SCORE.INTER>
-15.069

>  <SCORE.INTER.CONST>
1

>  <SCORE.INTER.POLAR>
0

>  <SCORE.INTER.ROT>
0

>  <SCORE.INTER.SOLV>
15.6827

>  <SCORE.INTER.VDW>
-18.8736

>  <SCORE.INTER.norm>
-1.25575

>  <SCORE.INTRA>
0

>  <SCORE.INTRA.DIHEDRAL>
0

>  <SCORE.INTRA.DIHEDRAL.0>
0

>  <SCORE.INTRA.POLAR>
0

>  <SCORE.INTRA.POLAR.0>
0

>  <SCORE.INTRA.REPUL>
0

>  <SCORE.INTRA.REPUL.0>
0

>  <SCORE.INTRA.SOLV>
0

>  <SCORE.INTRA.SOLV.lig_0>
-48.1583

>  <SCORE.INTRA.VDW>
0

>  <SCORE.INTRA.VDW.0>
0

>  <SCORE.INTRA.norm>
0

>  <SCORE.RESTR>
0

>  <SCORE.RESTR.CAVITY>
0

>  <SCORE.RESTR.norm>
0

>  <SCORE.SYSTEM>
0

>  <SCORE.SYSTEM.CONST>
0

>  <SCORE.SYSTEM.DIHEDRAL>
0

>  <SCORE.SYSTEM.SOLV>
0

>  <SCORE.SYSTEM.norm>
0

>  <SCORE.heavy>
12

>  <SCORE.norm>
-1.25575

>  <RMSD>
3.045

$$$$
ligand
 OpenBabel11021811503D
libRbt.so/2013.1/901 2013/11/27
 12 13  0  0  0  0  0  0  0  0999 V2000
    4.6949   15.3911    3.9482 C   0  0  0  0  0  0  0  0  0  0  0  0
    6.0129   17.0243    2.9331 C   0  0  0  0  0  0  0  0  0  0  0  0
    4.0323   14.2416    3.8561 N   0  0  0  0  0  0  0  0  0  0  0  0
    6.6360   17.5538    1.8746 N   0  0  0  0  0  0  0  0  0  0  0  0
    5.3191   15.8809    2.8548 N   0  0  0  0  0  0  0  0  0  0  0  0
    4.7562   16.0346    5.1352 N   0  0  0  0  0  0  0  0  0  0  0  0
    6.8413   19.5929    5.4596 N   0  0  0  0  0  0  0  0  0  0  0  0
    6.1850   19.0507    6.5753 C   0  0  0  0  0  0  0  0  0  0  0  0
    5.4665   17.8385    6.4530 N   0  0  0  0  0  0  0  0  0  0  0  0
    5.4368   17.2009    5.2628 C   0  0  0  0  0  0  0  0  0  0  0  0
    6.0951   17.7221    4.1443 C   0  0  0  0  0  0  0  0  0  0  0  0
    6.8039   18.9195    4.2226 C   0  0  0  0  0  0  0  0  0  0  0  0
  1  3  1  0  0  0  0
  1  5  1  0  0  0  0
  1  6  2  0  0  0  0
  2  5  2  0  0  0  0
  2 11  1  0  0  0  0
  2  4  1  0  0  0  0
  6 10  1  0  0  0  0
  7  8  2  0  0  0  0
  7 12  1  0  0  0  0
  8  9  1  0  0  0  0
  9 10  2  0  0  0  0
 10 11  1  0  0  0  0
 11 12  2  0  0  0  0
M  END
>  <CHROM.1>
5.67606948,17.17760260,4.38401544,2.26442309,-0.97269620,-2.01573215

>  <Name>
ligand

>  <RI>
0

>  <Rbt.Current_Directory>
/home/itssahil/PROJECTS/Mol_Feturizer/New_Systems/rnas/4LX5

>  <Rbt.Executable>
rbdock ($Id: //depot/dev/client3/rdock/2013.1/src/exe/rbdock.cxx#4 $)

>  <Rbt.Library>
libRbt.so (2013.1, Build901 2013/11/27)

>  <Rbt.Parameter_File>
/export/apps/rDock/src/rDock_2013.1_src/data/scripts/dock_solv.prm

>  <Rbt.Receptor>
prm/pocket_docking_8.prm

>  <SCORE>
-15.0415

>  <SCORE.INTER>
-15.0415

>  <SCORE.INTER.CONST>
1

>  <SCORE.INTER.POLAR>
0

>  <SCORE.INTER.ROT>
0

>  <SCORE.INTER.SOLV>
15.6982

>  <SCORE.INTER.VDW>
-18.8604

>  <SCORE.INTER.norm>
-1.25346

>  <SCORE.INTRA>
0

>  <SCORE.INTRA.DIHEDRAL>
0

>  <SCORE.INTRA.DIHEDRAL.0>
0

>  <SCORE.INTRA.POLAR>
0

>  <SCORE.INTRA.POLAR.0>
0

>  <SCORE.INTRA.REPUL>
0

>  <SCORE.INTRA.REPUL.0>
0

>  <SCORE.INTRA.SOLV>
0

>  <SCORE.INTRA.SOLV.lig_0>
-48.1583

>  <SCORE.INTRA.VDW>
0

>  <SCORE.INTRA.VDW.0>
0

>  <SCORE.INTRA.norm>
0

>  <SCORE.RESTR>
0

>  <SCORE.RESTR.CAVITY>
0

>  <SCORE.RESTR.norm>
0

>  <SCORE.SYSTEM>
0

>  <SCORE.SYSTEM.CONST>
0

>  <SCORE.SYSTEM.DIHEDRAL>
0

>  <SCORE.SYSTEM.SOLV>
0

>  <SCORE.SYSTEM.norm>
0

>  <SCORE.heavy>
12

>  <SCORE.norm>
-1.25346

>  <RMSD>
3.045

$$$$
ligand
 OpenBabel11021811503D
libRbt.so/2013.1/901 2013/11/27
 12 13  0  0  0  0  0  0  0  0999 V2000
    4.6837   15.4765    3.9551 C   0  0  0  0  0  0  0  0  0  0  0  0
    6.0487   17.0775    2.9507 C   0  0  0  0  0  0  0  0  0  0  0  0
    3.9983   14.3409    3.8589 N   0  0  0  0  0  0  0  0  0  0  0  0
    6.6962   17.5895    1.8983 N   0  0  0  0  0  0  0  0  0  0  0  0
    5.3319   15.9487    2.8679 N   0  0  0  0  0  0  0  0  0  0  0  0
    4.7436   16.1233    5.1404 N   0  0  0  0  0  0  0  0  0  0  0  0
    6.8993   19.6381    5.4780 N   0  0  0  0  0  0  0  0  0  0  0  0
    6.2176   19.1143    6.5873 C   0  0  0  0  0  0  0  0  0  0  0  0
    5.4752   17.9171    6.4604 N   0  0  0  0  0  0  0  0  0  0  0  0
    5.4471   17.2755    5.2723 C   0  0  0  0  0  0  0  0  0  0  0  0
    6.1304   17.7783    4.1603 C   0  0  0  0  0  0  0  0  0  0  0  0
    6.8633   18.9608    4.2431 C   0  0  0  0  0  0  0  0  0  0  0  0
  1  3  1  0  0  0  0
  1  5  1  0  0  0  0
  1  6  2  0  0  0  0
  2  5  2  0  0  0  0
  2 11  1  0  0  0  0
  2  4  1  0  0  0  0
  6 10  1  0  0  0  0
  7  8  2  0  0  0  0
  7 12  1  0  0  0  0
  8  9  1  0  0  0  0
  9 10  2  0  0  0  0
 10 11  1  0  0  0  0
 11 12  2  0  0  0  0
M  END
>  <CHROM.1>
5.69689951,17.24365861,4.39670070,2.26047131,-0.94817112,-2.02283211

>  <Name>
ligand

>  <RI>
0

>  <Rbt.Current_Directory>
/home/itssahil/PROJECTS/Mol_Feturizer/New_Systems/rnas/4LX5

>  <Rbt.Executable>
rbdock ($Id: //depot/dev/client3/rdock/2013.1/src/exe/rbdock.cxx#4 $)

>  <Rbt.Library>
libRbt.so (2013.1, Build901 2013/11/27)

>  <Rbt.Parameter_File>
/export/apps/rDock/src/rDock_2013.1_src/data/scripts/dock_solv.prm

>  <Rbt.Receptor>
prm/blind_docking_100.prm

>  <SCORE>
-15.0802

>  <SCORE.INTER>
-15.0802

>  <SCORE.INTER.CONST>
1

>  <SCORE.INTER.POLAR>
0

>  <SCORE.INTER.ROT>
0

>  <SCORE.INTER.SOLV>
15.5712

>  <SCORE.INTER.VDW>
-18.8439

>  <SCORE.INTER.norm>
-1.25668

>  <SCORE.INTRA>
0

>  <SCORE.INTRA.DIHEDRAL>
0

>  <SCORE.INTRA.DIHEDRAL.0>
0

>  <SCORE.INTRA.POLAR>
0

>  <SCORE.INTRA.POLAR.0>
0

>  <SCORE.INTRA.REPUL>
0

>  <SCORE.INTRA.REPUL.0>
0

>  <SCORE.INTRA.SOLV>
0

>  <SCORE.INTRA.SOLV.lig_0>
-48.1583

>  <SCORE.INTRA.VDW>
0

>  <SCORE.INTRA.VDW.0>
0

>  <SCORE.INTRA.norm>
0

>  <SCORE.RESTR>
0

>  <SCORE.RESTR.CAVITY>
0

>  <SCORE.RESTR.norm>
0

>  <SCORE.SYSTEM>
0

>  <SCORE.SYSTEM.CONST>
0

>  <SCORE.SYSTEM.DIHEDRAL>
0

>  <SCORE.SYSTEM.SOLV>
0

>  <SCORE.SYSTEM.norm>
0

>  <SCORE.heavy>
12

>  <SCORE.norm>
-1.25668

>  <RMSD>
3.046

$$$$
ligand
 OpenBabel11021811503D
libRbt.so/2013.1/901 2013/11/27
 12 13  0  0  0  0  0  0  0  0999 V2000
    4.6915   15.3930    3.9506 C   0  0  0  0  0  0  0  0  0  0  0  0
    6.0114   17.0236    2.9339 C   0  0  0  0  0  0  0  0  0  0  0  0
    4.0275   14.2443    3.8594 N   0  0  0  0  0  0  0  0  0  0  0  0
    6.6350   17.5515    1.8748 N   0  0  0  0  0  0  0  0  0  0  0  0
    5.3161   15.8812    2.8566 N   0  0  0  0  0  0  0  0  0  0  0  0
    4.7539   16.0373    5.1370 N   0  0  0  0  0  0  0  0  0  0  0  0
    6.8438   19.5931    5.4582 N   0  0  0  0  0  0  0  0  0  0  0  0
    6.1869   19.0527    6.5745 C   0  0  0  0  0  0  0  0  0  0  0  0
    5.4668   17.8413    6.4532 N   0  0  0  0  0  0  0  0  0  0  0  0
    5.4360   17.2029    5.2635 C   0  0  0  0  0  0  0  0  0  0  0  0
    6.0949   17.7223    4.1445 C   0  0  0  0  0  0  0  0  0  0  0  0
    6.8052   18.9189    4.2217 C   0  0  0  0  0  0  0  0  0  0  0  0
  1  3  1  0  0  0  0
  1  5  1  0  0  0  0
  1  6  2  0  0  0  0
  2  5  2  0  0  0  0
  2 11  1  0  0  0  0
  2  4  1  0  0  0  0
  6 10  1  0  0  0  0
  7  8  2  0  0  0  0
  7 12  1  0  0  0  0
  8  9  1  0  0  0  0
  9 10  2  0  0  0  0
 10 11  1  0  0  0  0
 11 12  2  0  0  0  0
M  END
>  <CHROM.1>
5.67513404,17.17855766,4.38473144,2.26573690,-0.97159977,-2.01543488

>  <Name>
ligand

>  <RI>
0

>  <Rbt.Current_Directory>
/home/itssahil/PROJECTS/Mol_Feturizer/New_Systems/rnas/4LX5

>  <Rbt.Executable>
rbdock ($Id: //depot/dev/client3/rdock/2013.1/src/exe/rbdock.cxx#4 $)

>  <Rbt.Library>
libRbt.so (2013.1, Build901 2013/11/27)

>  <Rbt.Parameter_File>
/export/apps/rDock/src/rDock_2013.1_src/data/scripts/dock_solv.prm

>  <Rbt.Receptor>
prm/blind_docking_40.prm

>  <SCORE>
-15.0409

>  <SCORE.INTER>
-15.0409

>  <SCORE.INTER.CONST>
1

>  <SCORE.INTER.POLAR>
0

>  <SCORE.INTER.ROT>
0

>  <SCORE.INTER.SOLV>
15.6747

>  <SCORE.INTER.VDW>
-18.8522

>  <SCORE.INTER.norm>
-1.25341

>  <SCORE.INTRA>
0

>  <SCORE.INTRA.DIHEDRAL>
0

>  <SCORE.INTRA.DIHEDRAL.0>
0

>  <SCORE.INTRA.POLAR>
0

>  <SCORE.INTRA.POLAR.0>
0

>  <SCORE.INTRA.REPUL>
0

>  <SCORE.INTRA.REPUL.0>
0

>  <SCORE.INTRA.SOLV>
0

>  <SCORE.INTRA.SOLV.lig_0>
-48.1583

>  <SCORE.INTRA.VDW>
0

>  <SCORE.INTRA.VDW.0>
0

>  <SCORE.INTRA.norm>
0

>  <SCORE.RESTR>
0

>  <SCORE.RESTR.CAVITY>
0

>  <SCORE.RESTR.norm>
0

>  <SCORE.SYSTEM>
0

>  <SCORE.SYSTEM.CONST>
0

>  <SCORE.SYSTEM.DIHEDRAL>
0

>  <SCORE.SYSTEM.SOLV>
0

>  <SCORE.SYSTEM.norm>
0

>  <SCORE.heavy>
12

>  <SCORE.norm>
-1.25341

>  <RMSD>
3.046

$$$$
ligand
 OpenBabel11021811503D
libRbt.so/2013.1/901 2013/11/27
 12 13  0  0  0  0  0  0  0  0999 V2000
    4.6784   15.4784    3.9548 C   0  0  0  0  0  0  0  0  0  0  0  0
    6.0445   17.0775    2.9491 C   0  0  0  0  0  0  0  0  0  0  0  0
    3.9920   14.3432    3.8593 N   0  0  0  0  0  0  0  0  0  0  0  0
    6.6923   17.5883    1.8962 N   0  0  0  0  0  0  0  0  0  0  0  0
    5.3269   15.9493    2.8671 N   0  0  0  0  0  0  0  0  0  0  0  0
    4.7389   16.1259    5.1395 N   0  0  0  0  0  0  0  0  0  0  0  0
    6.8974   19.6393    5.4745 N   0  0  0  0  0  0  0  0  0  0  0  0
    6.2154   19.1168    6.5842 C   0  0  0  0  0  0  0  0  0  0  0  0
    5.4721   17.9201    6.4582 N   0  0  0  0  0  0  0  0  0  0  0  0
    5.4433   17.2777    5.2705 C   0  0  0  0  0  0  0  0  0  0  0  0
    6.1269   17.7791    4.1582 C   0  0  0  0  0  0  0  0  0  0  0  0
    6.8607   18.9611    4.2400 C   0  0  0  0  0  0  0  0  0  0  0  0
  1  3  1  0  0  0  0
  1  5  1  0  0  0  0
  1  6  2  0  0  0  0
  2  5  2  0  0  0  0
  2 11  1  0  0  0  0
  2  4  1  0  0  0  0
  6 10  1  0  0  0  0
  7  8  2  0  0  0  0
  7 12  1  0  0  0  0
  8  9  1  0  0  0  0
  9 10  2  0  0  0  0
 10 11  1  0  0  0  0
 11 12  2  0  0  0  0
M  END
>  <CHROM.1>
5.69302075,17.24504067,4.39496643,2.26122445,-0.94748922,-2.02292559

>  <Name>
ligand

>  <RI>
0

>  <Rbt.Current_Directory>
/home/itssahil/PROJECTS/Mol_Feturizer/New_Systems/rnas/4LX5

>  <Rbt.Executable>
rbdock ($Id: //depot/dev/client3/rdock/2013.1/src/exe/rbdock.cxx#4 $)

>  <Rbt.Library>
libRbt.so (2013.1, Build901 2013/11/27)

>  <Rbt.Parameter_File>
/export/apps/rDock/src/rDock_2013.1_src/data/scripts/dock_solv.prm

>  <Rbt.Receptor>
prm/blind_docking_40.prm

>  <SCORE>
-15.0796

>  <SCORE.INTER>
-15.0796

>  <SCORE.INTER.CONST>
1

>  <SCORE.INTER.POLAR>
0

>  <SCORE.INTER.ROT>
0

>  <SCORE.INTER.SOLV>
15.5385

>  <SCORE.INTER.VDW>
-18.8326

>  <SCORE.INTER.norm>
-1.25664

>  <SCORE.INTRA>
0

>  <SCORE.INTRA.DIHEDRAL>
0

>  <SCORE.INTRA.DIHEDRAL.0>
0

>  <SCORE.INTRA.POLAR>
0

>  <SCORE.INTRA.POLAR.0>
0

>  <SCORE.INTRA.REPUL>
0

>  <SCORE.INTRA.REPUL.0>
0

>  <SCORE.INTRA.SOLV>
0

>  <SCORE.INTRA.SOLV.lig_0>
-48.1583

>  <SCORE.INTRA.VDW>
0

>  <SCORE.INTRA.VDW.0>
0

>  <SCORE.INTRA.norm>
0

>  <SCORE.RESTR>
0

>  <SCORE.RESTR.CAVITY>
0

>  <SCORE.RESTR.norm>
0

>  <SCORE.SYSTEM>
0

>  <SCORE.SYSTEM.CONST>
0

>  <SCORE.SYSTEM.DIHEDRAL>
0

>  <SCORE.SYSTEM.SOLV>
0

>  <SCORE.SYSTEM.norm>
0

>  <SCORE.heavy>
12

>  <SCORE.norm>
-1.25664

>  <RMSD>
3.046

$$$$
ligand
 OpenBabel11021811503D
libRbt.so/2013.1/901 2013/11/27
 12 13  0  0  0  0  0  0  0  0999 V2000
    4.6832   15.4761    3.9469 C   0  0  0  0  0  0  0  0  0  0  0  0
    6.0611   17.0828    2.9698 C   0  0  0  0  0  0  0  0  0  0  0  0
    3.9956   14.3433    3.8338 N   0  0  0  0  0  0  0  0  0  0  0  0
    6.7191   17.6030    1.9280 N   0  0  0  0  0  0  0  0  0  0  0  0
    5.3421   15.9568    2.8699 N   0  0  0  0  0  0  0  0  0  0  0  0
    4.7343   16.1114    5.1387 N   0  0  0  0  0  0  0  0  0  0  0  0
    6.8962   19.6170    5.5287 N   0  0  0  0  0  0  0  0  0  0  0  0
    6.2034   19.0845    6.6269 C   0  0  0  0  0  0  0  0  0  0  0  0
    5.4590   17.8906    6.4821 N   0  0  0  0  0  0  0  0  0  0  0  0
    5.4396   17.2604    5.2877 C   0  0  0  0  0  0  0  0  0  0  0  0
    6.1340   17.7718    4.1866 C   0  0  0  0  0  0  0  0  0  0  0  0
    6.8692   18.9515    4.2871 C   0  0  0  0  0  0  0  0  0  0  0  0
  1  3  1  0  0  0  0
  1  5  1  0  0  0  0
  1  6  2  0  0  0  0
  2  5  2  0  0  0  0
  2 11  1  0  0  0  0
  2  4  1  0  0  0  0
  6 10  1  0  0  0  0
  7  8  2  0  0  0  0
  7 12  1  0  0  0  0
  8  9  1  0  0  0  0
  9 10  2  0  0  0  0
 10 11  1  0  0  0  0
 11 12  2  0  0  0  0
M  END
>  <CHROM.1>
5.69704001,17.23619667,4.41410042,2.24897475,-0.94193354,-2.02264406

>  <Name>
ligand

>  <RI>
0

>  <Rbt.Current_Directory>
/home/itssahil/PROJECTS/Mol_Feturizer/New_Systems/rnas/4LX5

>  <Rbt.Executable>
rbdock ($Id: //depot/dev/client3/rdock/2013.1/src/exe/rbdock.cxx#4 $)

>  <Rbt.Library>
libRbt.so (2013.1, Build901 2013/11/27)

>  <Rbt.Parameter_File>
/export/apps/rDock/src/rDock_2013.1_src/data/scripts/dock_solv.prm

>  <Rbt.Receptor>
prm/blind_docking_60.prm

>  <SCORE>
-15.0374

>  <SCORE.INTER>
-15.0374

>  <SCORE.INTER.CONST>
1

>  <SCORE.INTER.POLAR>
0

>  <SCORE.INTER.ROT>
0

>  <SCORE.INTER.SOLV>
15.5273

>  <SCORE.INTER.VDW>
-18.8007

>  <SCORE.INTER.norm>
-1.25312

>  <SCORE.INTRA>
0

>  <SCORE.INTRA.DIHEDRAL>
0

>  <SCORE.INTRA.DIHEDRAL.0>
0

>  <SCORE.INTRA.POLAR>
0

>  <SCORE.INTRA.POLAR.0>
0

>  <SCORE.INTRA.REPUL>
0

>  <SCORE.INTRA.REPUL.0>
0

>  <SCORE.INTRA.SOLV>
0

>  <SCORE.INTRA.SOLV.lig_0>
-48.1583

>  <SCORE.INTRA.VDW>
0

>  <SCORE.INTRA.VDW.0>
0

>  <SCORE.INTRA.norm>
0

>  <SCORE.RESTR>
0

>  <SCORE.RESTR.CAVITY>
0

>  <SCORE.RESTR.norm>
0

>  <SCORE.SYSTEM>
0

>  <SCORE.SYSTEM.CONST>
0

>  <SCORE.SYSTEM.DIHEDRAL>
0

>  <SCORE.SYSTEM.SOLV>
0

>  <SCORE.SYSTEM.norm>
0

>  <SCORE.heavy>
12

>  <SCORE.norm>
-1.25312

>  <RMSD>
3.046

$$$$
ligand
 OpenBabel11021811503D
libRbt.so/2013.1/901 2013/11/27
 12 13  0  0  0  0  0  0  0  0999 V2000
    4.6874   15.3893    3.9447 C   0  0  0  0  0  0  0  0  0  0  0  0
    6.0099   17.0236    2.9372 C   0  0  0  0  0  0  0  0  0  0  0  0
    4.0267   14.2391    3.8487 N   0  0  0  0  0  0  0  0  0  0  0  0
    6.6389   17.5536    1.8824 N   0  0  0  0  0  0  0  0  0  0  0  0
    5.3178   15.8796    2.8549 N   0  0  0  0  0  0  0  0  0  0  0  0
    4.7408   16.0331    5.1318 N   0  0  0  0  0  0  0  0  0  0  0  0
    6.8203   19.5937    5.4682 N   0  0  0  0  0  0  0  0  0  0  0  0
    6.1577   19.0510    6.5800 C   0  0  0  0  0  0  0  0  0  0  0  0
    5.4412   17.8381    6.4535 N   0  0  0  0  0  0  0  0  0  0  0  0
    5.4194   17.2002    5.2633 C   0  0  0  0  0  0  0  0  0  0  0  0
    6.0841   17.7218    4.1488 C   0  0  0  0  0  0  0  0  0  0  0  0
    6.7911   18.9200    4.2310 C   0  0  0  0  0  0  0  0  0  0  0  0
  1  3  1  0  0  0  0
  1  5  1  0  0  0  0
  1  6  2  0  0  0  0
  2  5  2  0  0  0  0
  2 11  1  0  0  0  0
  2  4  1  0  0  0  0
  6 10  1  0  0  0  0
  7  8  2  0  0  0  0
  7 12  1  0  0  0  0
  8  9  1  0  0  0  0
  9 10  2  0  0  0  0
 10 11  1  0  0  0  0
 11 12  2  0  0  0  0
M  END
>  <CHROM.1>
5.66410807,17.17693340,4.38600941,2.25387354,-0.97098224,-2.02466895

>  <Name>
ligand

>  <RI>
0

>  <Rbt.Current_Directory>
/home/itssahil/PROJECTS/Mol_Feturizer/New_Systems/rnas/4LX5

>  <Rbt.Executable>
rbdock ($Id: //depot/dev/client3/rdock/2013.1/src/exe/rbdock.cxx#4 $)

>  <Rbt.Library>
libRbt.so (2013.1, Build901 2013/11/27)

>  <Rbt.Parameter_File>
/export/apps/rDock/src/rDock_2013.1_src/data/scripts/dock_solv.prm

>  <Rbt.Receptor>
prm/blind_docking_60.prm

>  <SCORE>
-15.0365

>  <SCORE.INTER>
-15.0365

>  <SCORE.INTER.CONST>
1

>  <SCORE.INTER.POLAR>
0

>  <SCORE.INTER.ROT>
0

>  <SCORE.INTER.SOLV>
15.6676

>  <SCORE.INTER.VDW>
-18.8469

>  <SCORE.INTER.norm>
-1.25304

>  <SCORE.INTRA>
0

>  <SCORE.INTRA.DIHEDRAL>
0

>  <SCORE.INTRA.DIHEDRAL.0>
0

>  <SCORE.INTRA.POLAR>
0

>  <SCORE.INTRA.POLAR.0>
0

>  <SCORE.INTRA.REPUL>
0

>  <SCORE.INTRA.REPUL.0>
0

>  <SCORE.INTRA.SOLV>
0

>  <SCORE.INTRA.SOLV.lig_0>
-48.1583

>  <SCORE.INTRA.VDW>
0

>  <SCORE.INTRA.VDW.0>
0

>  <SCORE.INTRA.norm>
0

>  <SCORE.RESTR>
0

>  <SCORE.RESTR.CAVITY>
0

>  <SCORE.RESTR.norm>
0

>  <SCORE.SYSTEM>
0

>  <SCORE.SYSTEM.CONST>
0

>  <SCORE.SYSTEM.DIHEDRAL>
0

>  <SCORE.SYSTEM.SOLV>
0

>  <SCORE.SYSTEM.norm>
0

>  <SCORE.heavy>
12

>  <SCORE.norm>
-1.25304

>  <RMSD>
3.046

$$$$
ligand
 OpenBabel11021811503D
libRbt.so/2013.1/901 2013/11/27
 12 13  0  0  0  0  0  0  0  0999 V2000
    4.6944   15.3911    3.9492 C   0  0  0  0  0  0  0  0  0  0  0  0
    6.0115   17.0239    2.9323 C   0  0  0  0  0  0  0  0  0  0  0  0
    4.0323   14.2413    3.8582 N   0  0  0  0  0  0  0  0  0  0  0  0
    6.6341   17.5528    1.8732 N   0  0  0  0  0  0  0  0  0  0  0  0
    5.3181   15.8803    2.8552 N   0  0  0  0  0  0  0  0  0  0  0  0
    4.7558   16.0356    5.1356 N   0  0  0  0  0  0  0  0  0  0  0  0
    6.8398   19.5949    5.4565 N   0  0  0  0  0  0  0  0  0  0  0  0
    6.1840   19.0534    6.5728 C   0  0  0  0  0  0  0  0  0  0  0  0
    5.4659   17.8409    6.4517 N   0  0  0  0  0  0  0  0  0  0  0  0
    5.4360   17.2023    5.2620 C   0  0  0  0  0  0  0  0  0  0  0  0
    6.0939   17.7228    4.1429 C   0  0  0  0  0  0  0  0  0  0  0  0
    6.8022   18.9206    4.2200 C   0  0  0  0  0  0  0  0  0  0  0  0
  1  3  1  0  0  0  0
  1  5  1  0  0  0  0
  1  6  2  0  0  0  0
  2  5  2  0  0  0  0
  2 11  1  0  0  0  0
  2  4  1  0  0  0  0
  6 10  1  0  0  0  0
  7  8  2  0  0  0  0
  7 12  1  0  0  0  0
  8  9  1  0  0  0  0
  9 10  2  0  0  0  0
 10 11  1  0  0  0  0
 11 12  2  0  0  0  0
M  END
>  <CHROM.1>
5.67508657,17.17835942,4.38321061,2.26461904,-0.97314894,-2.01640297

>  <Name>
ligand

>  <RI>
0

>  <Rbt.Current_Directory>
/home/itssahil/PROJECTS/Mol_Feturizer/New_Systems/rnas/4LX5

>  <Rbt.Executable>
rbdock ($Id: //depot/dev/client3/rdock/2013.1/src/exe/rbdock.cxx#4 $)

>  <Rbt.Library>
libRbt.so (2013.1, Build901 2013/11/27)

>  <Rbt.Parameter_File>
/export/apps/rDock/src/rDock_2013.1_src/data/scripts/dock_solv.prm

>  <Rbt.Receptor>
prm/blind_docking_80.prm

>  <SCORE>
-15.0415

>  <SCORE.INTER>
-15.0415

>  <SCORE.INTER.CONST>
1

>  <SCORE.INTER.POLAR>
0

>  <SCORE.INTER.ROT>
0

>  <SCORE.INTER.SOLV>
15.6991

>  <SCORE.INTER.VDW>
-18.8607

>  <SCORE.INTER.norm>
-1.25346

>  <SCORE.INTRA>
0

>  <SCORE.INTRA.DIHEDRAL>
0

>  <SCORE.INTRA.DIHEDRAL.0>
0

>  <SCORE.INTRA.POLAR>
0

>  <SCORE.INTRA.POLAR.0>
0

>  <SCORE.INTRA.REPUL>
0

>  <SCORE.INTRA.REPUL.0>
0

>  <SCORE.INTRA.SOLV>
0

>  <SCORE.INTRA.SOLV.lig_0>
-48.1583

>  <SCORE.INTRA.VDW>
0

>  <SCORE.INTRA.VDW.0>
0

>  <SCORE.INTRA.norm>
0

>  <SCORE.RESTR>
0

>  <SCORE.RESTR.CAVITY>
0

>  <SCORE.RESTR.norm>
0

>  <SCORE.SYSTEM>
0

>  <SCORE.SYSTEM.CONST>
0

>  <SCORE.SYSTEM.DIHEDRAL>
0

>  <SCORE.SYSTEM.SOLV>
0

>  <SCORE.SYSTEM.norm>
0

>  <SCORE.heavy>
12

>  <SCORE.norm>
-1.25346

>  <RMSD>
3.046

$$$$
ligand
 OpenBabel11021811503D
libRbt.so/2013.1/901 2013/11/27
 12 13  0  0  0  0  0  0  0  0999 V2000
    4.6935   15.4784    3.9577 C   0  0  0  0  0  0  0  0  0  0  0  0
    6.0604   17.0813    2.9592 C   0  0  0  0  0  0  0  0  0  0  0  0
    4.0088   14.3426    3.8580 N   0  0  0  0  0  0  0  0  0  0  0  0
    6.7105   17.5951    1.9093 N   0  0  0  0  0  0  0  0  0  0  0  0
    5.3444   15.9524    2.8729 N   0  0  0  0  0  0  0  0  0  0  0  0
    4.7499   16.1235    5.1440 N   0  0  0  0  0  0  0  0  0  0  0  0
    6.9032   19.6387    5.4924 N   0  0  0  0  0  0  0  0  0  0  0  0
    6.2187   19.1131    6.5991 C   0  0  0  0  0  0  0  0  0  0  0  0
    5.4772   17.9157    6.4685 N   0  0  0  0  0  0  0  0  0  0  0  0
    5.4525   17.2758    5.2794 C   0  0  0  0  0  0  0  0  0  0  0  0
    6.1386   17.7804    4.1700 C   0  0  0  0  0  0  0  0  0  0  0  0
    6.8707   18.9631    4.2564 C   0  0  0  0  0  0  0  0  0  0  0  0
  1  3  1  0  0  0  0
  1  5  1  0  0  0  0
  1  6  2  0  0  0  0
  2  5  2  0  0  0  0
  2 11  1  0  0  0  0
  2  4  1  0  0  0  0
  6 10  1  0  0  0  0
  7  8  2  0  0  0  0
  7 12  1  0  0  0  0
  8  9  1  0  0  0  0
  9 10  2  0  0  0  0
 10 11  1  0  0  0  0
 11 12  2  0  0  0  0
M  END
>  <CHROM.1>
5.70470137,17.24532042,4.40447525,2.25601152,-0.94737197,-2.02503925

>  <Name>
ligand

>  <RI>
0

>  <Rbt.Current_Directory>
/home/itssahil/PROJECTS/Mol_Feturizer/New_Systems/rnas/4LX5

>  <Rbt.Executable>
rbdock ($Id: //depot/dev/client3/rdock/2013.1/src/exe/rbdock.cxx#4 $)

>  <Rbt.Library>
libRbt.so (2013.1, Build901 2013/11/27)

>  <Rbt.Parameter_File>
/export/apps/rDock/src/rDock_2013.1_src/data/scripts/dock_solv.prm

>  <Rbt.Receptor>
prm/pocket_docking_4.prm

>  <SCORE>
-15.071

>  <SCORE.INTER>
-15.071

>  <SCORE.INTER.CONST>
1

>  <SCORE.INTER.POLAR>
0

>  <SCORE.INTER.ROT>
0

>  <SCORE.INTER.SOLV>
15.6264

>  <SCORE.INTER.VDW>
-18.8561

>  <SCORE.INTER.norm>
-1.25592

>  <SCORE.INTRA>
0

>  <SCORE.INTRA.DIHEDRAL>
0

>  <SCORE.INTRA.DIHEDRAL.0>
0

>  <SCORE.INTRA.POLAR>
0

>  <SCORE.INTRA.POLAR.0>
0

>  <SCORE.INTRA.REPUL>
0

>  <SCORE.INTRA.REPUL.0>
0

>  <SCORE.INTRA.SOLV>
0

>  <SCORE.INTRA.SOLV.lig_0>
-48.1583

>  <SCORE.INTRA.VDW>
0

>  <SCORE.INTRA.VDW.0>
0

>  <SCORE.INTRA.norm>
0

>  <SCORE.RESTR>
0

>  <SCORE.RESTR.CAVITY>
0

>  <SCORE.RESTR.norm>
0

>  <SCORE.SYSTEM>
0

>  <SCORE.SYSTEM.CONST>
0

>  <SCORE.SYSTEM.DIHEDRAL>
0

>  <SCORE.SYSTEM.SOLV>
0

>  <SCORE.SYSTEM.norm>
0

>  <SCORE.heavy>
12

>  <SCORE.norm>
-1.25592

>  <RMSD>
3.046

$$$$
ligand
 OpenBabel11021811503D
libRbt.so/2013.1/901 2013/11/27
 12 13  0  0  0  0  0  0  0  0999 V2000
    4.6802   15.4801    3.9538 C   0  0  0  0  0  0  0  0  0  0  0  0
    6.0477   17.0794    2.9503 C   0  0  0  0  0  0  0  0  0  0  0  0
    3.9935   14.3452    3.8571 N   0  0  0  0  0  0  0  0  0  0  0  0
    6.6964   17.5907    1.8983 N   0  0  0  0  0  0  0  0  0  0  0  0
    5.3296   15.9515    2.8670 N   0  0  0  0  0  0  0  0  0  0  0  0
    4.7400   16.1268    5.1391 N   0  0  0  0  0  0  0  0  0  0  0  0
    6.8996   19.6391    5.4781 N   0  0  0  0  0  0  0  0  0  0  0  0
    6.2165   19.1161    6.5869 C   0  0  0  0  0  0  0  0  0  0  0  0
    5.4728   17.9197    6.4595 N   0  0  0  0  0  0  0  0  0  0  0  0
    5.4447   17.2782    5.2714 C   0  0  0  0  0  0  0  0  0  0  0  0
    6.1294   17.7801    4.1599 C   0  0  0  0  0  0  0  0  0  0  0  0
    6.8636   18.9618    4.2431 C   0  0  0  0  0  0  0  0  0  0  0  0
  1  3  1  0  0  0  0
  1  5  1  0  0  0  0
  1  6  2  0  0  0  0
  2  5  2  0  0  0  0
  2 11  1  0  0  0  0
  2  4  1  0  0  0  0
  6 10  1  0  0  0  0
  7  8  2  0  0  0  0
  7 12  1  0  0  0  0
  8  9  1  0  0  0  0
  9 10  2  0  0  0  0
 10 11  1  0  0  0  0
 11 12  2  0  0  0  0
M  END
>  <CHROM.1>
5.69511024,17.24602585,4.39601003,2.26032053,-0.94683234,-2.02297657

>  <Name>
ligand

>  <RI>
0

>  <Rbt.Current_Directory>
/home/itssahil/PROJECTS/Mol_Feturizer/New_Systems/rnas/4LX5

>  <Rbt.Executable>
rbdock ($Id: //depot/dev/client3/rdock/2013.1/src/exe/rbdock.cxx#4 $)

>  <Rbt.Library>
libRbt.so (2013.1, Build901 2013/11/27)

>  <Rbt.Parameter_File>
/export/apps/rDock/src/rDock_2013.1_src/data/scripts/dock_solv.prm

>  <Rbt.Receptor>
prm/pocket_docking_4.prm

>  <SCORE>
-15.0782

>  <SCORE.INTER>
-15.0782

>  <SCORE.INTER.CONST>
1

>  <SCORE.INTER.POLAR>
0

>  <SCORE.INTER.ROT>
0

>  <SCORE.INTER.SOLV>
15.5457

>  <SCORE.INTER.VDW>
-18.8341

>  <SCORE.INTER.norm>
-1.25652

>  <SCORE.INTRA>
0

>  <SCORE.INTRA.DIHEDRAL>
0

>  <SCORE.INTRA.DIHEDRAL.0>
0

>  <SCORE.INTRA.POLAR>
0

>  <SCORE.INTRA.POLAR.0>
0

>  <SCORE.INTRA.REPUL>
0

>  <SCORE.INTRA.REPUL.0>
0

>  <SCORE.INTRA.SOLV>
0

>  <SCORE.INTRA.SOLV.lig_0>
-48.1583

>  <SCORE.INTRA.VDW>
0

>  <SCORE.INTRA.VDW.0>
0

>  <SCORE.INTRA.norm>
0

>  <SCORE.RESTR>
0

>  <SCORE.RESTR.CAVITY>
0

>  <SCORE.RESTR.norm>
0

>  <SCORE.SYSTEM>
0

>  <SCORE.SYSTEM.CONST>
0

>  <SCORE.SYSTEM.DIHEDRAL>
0

>  <SCORE.SYSTEM.SOLV>
0

>  <SCORE.SYSTEM.norm>
0

>  <SCORE.heavy>
12

>  <SCORE.norm>
-1.25652

>  <RMSD>
3.046

$$$$
ligand
 OpenBabel11021811503D
libRbt.so/2013.1/901 2013/11/27
 12 13  0  0  0  0  0  0  0  0999 V2000
    4.6883   15.4749    3.9572 C   0  0  0  0  0  0  0  0  0  0  0  0
    6.0489   17.0780    2.9504 C   0  0  0  0  0  0  0  0  0  0  0  0
    4.0040   14.3384    3.8620 N   0  0  0  0  0  0  0  0  0  0  0  0
    6.6933   17.5914    1.8968 N   0  0  0  0  0  0  0  0  0  0  0  0
    5.3334   15.9484    2.8687 N   0  0  0  0  0  0  0  0  0  0  0  0
    4.7500   16.1212    5.1426 N   0  0  0  0  0  0  0  0  0  0  0  0
    6.9020   19.6386    5.4769 N   0  0  0  0  0  0  0  0  0  0  0  0
    6.2235   19.1135    6.5875 C   0  0  0  0  0  0  0  0  0  0  0  0
    5.4823   17.9153    6.4617 N   0  0  0  0  0  0  0  0  0  0  0  0
    5.4523   17.2743    5.2734 C   0  0  0  0  0  0  0  0  0  0  0  0
    6.1324   17.7784    4.1602 C   0  0  0  0  0  0  0  0  0  0  0  0
    6.8640   18.9618    4.2418 C   0  0  0  0  0  0  0  0  0  0  0  0
  1  3  1  0  0  0  0
  1  5  1  0  0  0  0
  1  6  2  0  0  0  0
  2  5  2  0  0  0  0
  2 11  1  0  0  0  0
  2  4  1  0  0  0  0
  6 10  1  0  0  0  0
  7  8  2  0  0  0  0
  7 12  1  0  0  0  0
  8  9  1  0  0  0  0
  9 10  2  0  0  0  0
 10 11  1  0  0  0  0
 11 12  2  0  0  0  0
M  END
>  <CHROM.1>
5.70018406,17.24312526,4.39726894,2.26305277,-0.95031082,-2.02028768

>  <Name>
ligand

>  <RI>
0

>  <Rbt.Current_Directory>
/home/itssahil/PROJECTS/Mol_Feturizer/New_Systems/rnas/4LX5

>  <Rbt.Executable>
rbdock ($Id: //depot/dev/client3/rdock/2013.1/src/exe/rbdock.cxx#4 $)

>  <Rbt.Library>
libRbt.so (2013.1, Build901 2013/11/27)

>  <Rbt.Parameter_File>
/export/apps/rDock/src/rDock_2013.1_src/data/scripts/dock_solv.prm

>  <Rbt.Receptor>
prm/pocket_docking_7.prm

>  <SCORE>
-15.0805

>  <SCORE.INTER>
-15.0805

>  <SCORE.INTER.CONST>
1

>  <SCORE.INTER.POLAR>
0

>  <SCORE.INTER.ROT>
0

>  <SCORE.INTER.SOLV>
15.5993

>  <SCORE.INTER.VDW>
-18.8534

>  <SCORE.INTER.norm>
-1.25671

>  <SCORE.INTRA>
0

>  <SCORE.INTRA.DIHEDRAL>
0

>  <SCORE.INTRA.DIHEDRAL.0>
0

>  <SCORE.INTRA.POLAR>
0

>  <SCORE.INTRA.POLAR.0>
0

>  <SCORE.INTRA.REPUL>
0

>  <SCORE.INTRA.REPUL.0>
0

>  <SCORE.INTRA.SOLV>
0

>  <SCORE.INTRA.SOLV.lig_0>
-48.1583

>  <SCORE.INTRA.VDW>
0

>  <SCORE.INTRA.VDW.0>
0

>  <SCORE.INTRA.norm>
0

>  <SCORE.RESTR>
0

>  <SCORE.RESTR.CAVITY>
0

>  <SCORE.RESTR.norm>
0

>  <SCORE.SYSTEM>
0

>  <SCORE.SYSTEM.CONST>
0

>  <SCORE.SYSTEM.DIHEDRAL>
0

>  <SCORE.SYSTEM.SOLV>
0

>  <SCORE.SYSTEM.norm>
0

>  <SCORE.heavy>
12

>  <SCORE.norm>
-1.25671

>  <RMSD>
3.046

$$$$
ligand
 OpenBabel11021811503D
libRbt.so/2013.1/901 2013/11/27
 12 13  0  0  0  0  0  0  0  0999 V2000
    4.2500   15.8081    3.8258 C   0  0  0  0  0  0  0  0  0  0  0  0
    5.9105   17.1398    2.8750 C   0  0  0  0  0  0  0  0  0  0  0  0
    3.3544   14.8341    3.6919 N   0  0  0  0  0  0  0  0  0  0  0  0
    6.6529   17.5481    1.8400 N   0  0  0  0  0  0  0  0  0  0  0  0
    4.9855   16.1783    2.7547 N   0  0  0  0  0  0  0  0  0  0  0  0
    4.4291   16.3909    5.0320 N   0  0  0  0  0  0  0  0  0  0  0  0
    7.2345   19.3973    5.4862 N   0  0  0  0  0  0  0  0  0  0  0  0
    6.4559   18.9824    6.5776 C   0  0  0  0  0  0  0  0  0  0  0  0
    5.4924   17.9603    6.4110 N   0  0  0  0  0  0  0  0  0  0  0  0
    5.3455   17.3764    5.2021 C   0  0  0  0  0  0  0  0  0  0  0  0
    6.1215   17.7705    4.1073 C   0  0  0  0  0  0  0  0  0  0  0  0
    7.0730   18.7815    4.2293 C   0  0  0  0  0  0  0  0  0  0  0  0
  1  3  1  0  0  0  0
  1  5  1  0  0  0  0
  1  6  2  0  0  0  0
  2  5  2  0  0  0  0
  2 11  1  0  0  0  0
  2  4  1  0  0  0  0
  6 10  1  0  0  0  0
  7  8  2  0  0  0  0
  7 12  1  0  0  0  0
  8  9  1  0  0  0  0
  9 10  2  0  0  0  0
 10 11  1  0  0  0  0
 11 12  2  0  0  0  0
M  END
>  <CHROM.1>
5.58954478,17.32462396,4.32585824,2.37236800,-0.76304430,-1.90444623

>  <Name>
ligand

>  <RI>
0

>  <Rbt.Current_Directory>
/home/itssahil/PROJECTS/Mol_Feturizer/New_Systems/rnas/4LX5

>  <Rbt.Executable>
rbdock ($Id: //depot/dev/client3/rdock/2013.1/src/exe/rbdock.cxx#4 $)

>  <Rbt.Library>
libRbt.so (2013.1, Build901 2013/11/27)

>  <Rbt.Parameter_File>
/export/apps/rDock/src/rDock_2013.1_src/data/scripts/dock_solv.prm

>  <Rbt.Receptor>
prm/pocket_docking_7.prm

>  <SCORE>
-14.2981

>  <SCORE.INTER>
-14.2981

>  <SCORE.INTER.CONST>
1

>  <SCORE.INTER.POLAR>
0

>  <SCORE.INTER.ROT>
0

>  <SCORE.INTER.SOLV>
13.0291

>  <SCORE.INTER.VDW>
-17.4751

>  <SCORE.INTER.norm>
-1.19151

>  <SCORE.INTRA>
0

>  <SCORE.INTRA.DIHEDRAL>
0

>  <SCORE.INTRA.DIHEDRAL.0>
0

>  <SCORE.INTRA.POLAR>
0

>  <SCORE.INTRA.POLAR.0>
0

>  <SCORE.INTRA.REPUL>
0

>  <SCORE.INTRA.REPUL.0>
0

>  <SCORE.INTRA.SOLV>
0

>  <SCORE.INTRA.SOLV.lig_0>
-48.1583

>  <SCORE.INTRA.VDW>
0

>  <SCORE.INTRA.VDW.0>
0

>  <SCORE.INTRA.norm>
0

>  <SCORE.RESTR>
0

>  <SCORE.RESTR.CAVITY>
0

>  <SCORE.RESTR.norm>
0

>  <SCORE.SYSTEM>
0

>  <SCORE.SYSTEM.CONST>
0

>  <SCORE.SYSTEM.DIHEDRAL>
0

>  <SCORE.SYSTEM.SOLV>
0

>  <SCORE.SYSTEM.norm>
0

>  <SCORE.heavy>
12

>  <SCORE.norm>
-1.19151

>  <RMSD>
3.046

$$$$
ligand
 OpenBabel11021811503D
libRbt.so/2013.1/901 2013/11/27
 12 13  0  0  0  0  0  0  0  0999 V2000
    4.6919   15.3910    3.9480 C   0  0  0  0  0  0  0  0  0  0  0  0
    6.0119   17.0235    2.9343 C   0  0  0  0  0  0  0  0  0  0  0  0
    4.0300   14.2411    3.8555 N   0  0  0  0  0  0  0  0  0  0  0  0
    6.6375   17.5520    1.8769 N   0  0  0  0  0  0  0  0  0  0  0  0
    5.3187   15.8798    2.8556 N   0  0  0  0  0  0  0  0  0  0  0  0
    4.7499   16.0358    5.1344 N   0  0  0  0  0  0  0  0  0  0  0  0
    6.8329   19.5953    5.4601 N   0  0  0  0  0  0  0  0  0  0  0  0
    6.1739   19.0541    6.5747 C   0  0  0  0  0  0  0  0  0  0  0  0
    5.4561   17.8415    6.4519 N   0  0  0  0  0  0  0  0  0  0  0  0
    5.4297   17.2026    5.2624 C   0  0  0  0  0  0  0  0  0  0  0  0
    6.0908   17.7227    4.1450 C   0  0  0  0  0  0  0  0  0  0  0  0
    6.7989   18.9205    4.2237 C   0  0  0  0  0  0  0  0  0  0  0  0
  1  3  1  0  0  0  0
  1  5  1  0  0  0  0
  1  6  2  0  0  0  0
  2  5  2  0  0  0  0
  2 11  1  0  0  0  0
  2  4  1  0  0  0  0
  6 10  1  0  0  0  0
  7  8  2  0  0  0  0
  7 12  1  0  0  0  0
  8  9  1  0  0  0  0
  9 10  2  0  0  0  0
 10 11  1  0  0  0  0
 11 12  2  0  0  0  0
M  END
>  <CHROM.1>
5.67129584,17.17833499,4.38423305,2.26002752,-0.97192215,-2.02051945

>  <Name>
ligand

>  <RI>
0

>  <Rbt.Current_Directory>
/home/itssahil/PROJECTS/Mol_Feturizer/New_Systems/rnas/4LX5

>  <Rbt.Executable>
rbdock ($Id: //depot/dev/client3/rdock/2013.1/src/exe/rbdock.cxx#4 $)

>  <Rbt.Library>
libRbt.so (2013.1, Build901 2013/11/27)

>  <Rbt.Parameter_File>
/export/apps/rDock/src/rDock_2013.1_src/data/scripts/dock_solv.prm

>  <Rbt.Receptor>
prm/pocket_docking_7.prm

>  <SCORE>
-15.0399

>  <SCORE.INTER>
-15.0399

>  <SCORE.INTER.CONST>
1

>  <SCORE.INTER.POLAR>
0

>  <SCORE.INTER.ROT>
0

>  <SCORE.INTER.SOLV>
15.6891

>  <SCORE.INTER.VDW>
-18.8563

>  <SCORE.INTER.norm>
-1.25333

>  <SCORE.INTRA>
0

>  <SCORE.INTRA.DIHEDRAL>
0

>  <SCORE.INTRA.DIHEDRAL.0>
0

>  <SCORE.INTRA.POLAR>
0

>  <SCORE.INTRA.POLAR.0>
0

>  <SCORE.INTRA.REPUL>
0

>  <SCORE.INTRA.REPUL.0>
0

>  <SCORE.INTRA.SOLV>
0

>  <SCORE.INTRA.SOLV.lig_0>
-48.1583

>  <SCORE.INTRA.VDW>
0

>  <SCORE.INTRA.VDW.0>
0

>  <SCORE.INTRA.norm>
0

>  <SCORE.RESTR>
0

>  <SCORE.RESTR.CAVITY>
0

>  <SCORE.RESTR.norm>
0

>  <SCORE.SYSTEM>
0

>  <SCORE.SYSTEM.CONST>
0

>  <SCORE.SYSTEM.DIHEDRAL>
0

>  <SCORE.SYSTEM.SOLV>
0

>  <SCORE.SYSTEM.norm>
0

>  <SCORE.heavy>
12

>  <SCORE.norm>
-1.25333

>  <RMSD>
3.046

$$$$
ligand
 OpenBabel11021811503D
libRbt.so/2013.1/901 2013/11/27
 12 13  0  0  0  0  0  0  0  0999 V2000
    4.6888   15.4824    3.9541 C   0  0  0  0  0  0  0  0  0  0  0  0
    6.0640   17.0814    2.9606 C   0  0  0  0  0  0  0  0  0  0  0  0
    4.0013   14.3485    3.8520 N   0  0  0  0  0  0  0  0  0  0  0  0
    6.7193   17.5933    1.9130 N   0  0  0  0  0  0  0  0  0  0  0  0
    5.3451   15.9545    2.8717 N   0  0  0  0  0  0  0  0  0  0  0  0
    4.7427   16.1275    5.1406 N   0  0  0  0  0  0  0  0  0  0  0  0
    6.9046   19.6367    5.4966 N   0  0  0  0  0  0  0  0  0  0  0  0
    6.2146   19.1131    6.6008 C   0  0  0  0  0  0  0  0  0  0  0  0
    5.4702   17.9178    6.4676 N   0  0  0  0  0  0  0  0  0  0  0  0
    5.4481   17.2778    5.2785 C   0  0  0  0  0  0  0  0  0  0  0  0
    6.1396   17.7804    4.1716 C   0  0  0  0  0  0  0  0  0  0  0  0
    6.8748   18.9610    4.2606 C   0  0  0  0  0  0  0  0  0  0  0  0
  1  3  1  0  0  0  0
  1  5  1  0  0  0  0
  1  6  2  0  0  0  0
  2  5  2  0  0  0  0
  2 11  1  0  0  0  0
  2  4  1  0  0  0  0
  6 10  1  0  0  0  0
  7  8  2  0  0  0  0
  7 12  1  0  0  0  0
  8  9  1  0  0  0  0
  9 10  2  0  0  0  0
 10 11  1  0  0  0  0
 11 12  2  0  0  0  0
M  END
>  <CHROM.1>
5.70339635,17.24653372,4.40447296,2.25250734,-0.94323117,-2.02797192

>  <Name>
ligand

>  <RI>
0

>  <Rbt.Current_Directory>
/home/itssahil/PROJECTS/Mol_Feturizer/New_Systems/rnas/4LX5

>  <Rbt.Executable>
rbdock ($Id: //depot/dev/client3/rdock/2013.1/src/exe/rbdock.cxx#4 $)

>  <Rbt.Library>
libRbt.so (2013.1, Build901 2013/11/27)

>  <Rbt.Parameter_File>
/export/apps/rDock/src/rDock_2013.1_src/data/scripts/dock_solv.prm

>  <Rbt.Receptor>
prm/pocket_docking_8.prm

>  <SCORE>
-15.0677

>  <SCORE.INTER>
-15.0677

>  <SCORE.INTER.CONST>
1

>  <SCORE.INTER.POLAR>
0

>  <SCORE.INTER.ROT>
0

>  <SCORE.INTER.SOLV>
15.5908

>  <SCORE.INTER.VDW>
-18.8421

>  <SCORE.INTER.norm>
-1.25564

>  <SCORE.INTRA>
0

>  <SCORE.INTRA.DIHEDRAL>
0

>  <SCORE.INTRA.DIHEDRAL.0>
0

>  <SCORE.INTRA.POLAR>
0

>  <SCORE.INTRA.POLAR.0>
0

>  <SCORE.INTRA.REPUL>
0

>  <SCORE.INTRA.REPUL.0>
0

>  <SCORE.INTRA.SOLV>
0

>  <SCORE.INTRA.SOLV.lig_0>
-48.1583

>  <SCORE.INTRA.VDW>
0

>  <SCORE.INTRA.VDW.0>
0

>  <SCORE.INTRA.norm>
0

>  <SCORE.RESTR>
0

>  <SCORE.RESTR.CAVITY>
0

>  <SCORE.RESTR.norm>
0

>  <SCORE.SYSTEM>
0

>  <SCORE.SYSTEM.CONST>
0

>  <SCORE.SYSTEM.DIHEDRAL>
0

>  <SCORE.SYSTEM.SOLV>
0

>  <SCORE.SYSTEM.norm>
0

>  <SCORE.heavy>
12

>  <SCORE.norm>
-1.25564

>  <RMSD>
3.046

$$$$
ligand
 OpenBabel11021811503D
libRbt.so/2013.1/901 2013/11/27
 12 13  0  0  0  0  0  0  0  0999 V2000
    4.6868   15.3948    3.9493 C   0  0  0  0  0  0  0  0  0  0  0  0
    6.0124   17.0229    2.9358 C   0  0  0  0  0  0  0  0  0  0  0  0
    4.0212   14.2471    3.8568 N   0  0  0  0  0  0  0  0  0  0  0  0
    6.6399   17.5493    1.8785 N   0  0  0  0  0  0  0  0  0  0  0  0
    5.3154   15.8815    2.8570 N   0  0  0  0  0  0  0  0  0  0  0  0
    4.7467   16.0395    5.1357 N   0  0  0  0  0  0  0  0  0  0  0  0
    6.8414   19.5921    5.4616 N   0  0  0  0  0  0  0  0  0  0  0  0
    6.1805   19.0532    6.5761 C   0  0  0  0  0  0  0  0  0  0  0  0
    5.4587   17.8430    6.4533 N   0  0  0  0  0  0  0  0  0  0  0  0
    5.4304   17.2040    5.2638 C   0  0  0  0  0  0  0  0  0  0  0  0
    6.0934   17.7220    4.1465 C   0  0  0  0  0  0  0  0  0  0  0  0
    6.8054   18.9174    4.2252 C   0  0  0  0  0  0  0  0  0  0  0  0
  1  3  1  0  0  0  0
  1  5  1  0  0  0  0
  1  6  2  0  0  0  0
  2  5  2  0  0  0  0
  2 11  1  0  0  0  0
  2  4  1  0  0  0  0
  6 10  1  0  0  0  0
  7  8  2  0  0  0  0
  7 12  1  0  0  0  0
  8  9  1  0  0  0  0
  9 10  2  0  0  0  0
 10 11  1  0  0  0  0
 11 12  2  0  0  0  0
M  END
>  <CHROM.1>
5.67205098,17.17894736,4.38566331,2.26228231,-0.96886267,-2.01870920

>  <Name>
ligand

>  <RI>
0

>  <Rbt.Current_Directory>
/home/itssahil/PROJECTS/Mol_Feturizer/New_Systems/rnas/4LX5

>  <Rbt.Executable>
rbdock ($Id: //depot/dev/client3/rdock/2013.1/src/exe/rbdock.cxx#4 $)

>  <Rbt.Library>
libRbt.so (2013.1, Build901 2013/11/27)

>  <Rbt.Parameter_File>
/export/apps/rDock/src/rDock_2013.1_src/data/scripts/dock_solv.prm

>  <Rbt.Receptor>
prm/blind_docking_40.prm

>  <SCORE>
-15.0397

>  <SCORE.INTER>
-15.0397

>  <SCORE.INTER.CONST>
1

>  <SCORE.INTER.POLAR>
0

>  <SCORE.INTER.ROT>
0

>  <SCORE.INTER.SOLV>
15.6461

>  <SCORE.INTER.VDW>
-18.8418

>  <SCORE.INTER.norm>
-1.25331

>  <SCORE.INTRA>
0

>  <SCORE.INTRA.DIHEDRAL>
0

>  <SCORE.INTRA.DIHEDRAL.0>
0

>  <SCORE.INTRA.POLAR>
0

>  <SCORE.INTRA.POLAR.0>
0

>  <SCORE.INTRA.REPUL>
0

>  <SCORE.INTRA.REPUL.0>
0

>  <SCORE.INTRA.SOLV>
0

>  <SCORE.INTRA.SOLV.lig_0>
-48.1583

>  <SCORE.INTRA.VDW>
0

>  <SCORE.INTRA.VDW.0>
0

>  <SCORE.INTRA.norm>
0

>  <SCORE.RESTR>
0

>  <SCORE.RESTR.CAVITY>
0

>  <SCORE.RESTR.norm>
0

>  <SCORE.SYSTEM>
0

>  <SCORE.SYSTEM.CONST>
0

>  <SCORE.SYSTEM.DIHEDRAL>
0

>  <SCORE.SYSTEM.SOLV>
0

>  <SCORE.SYSTEM.norm>
0

>  <SCORE.heavy>
12

>  <SCORE.norm>
-1.25331

>  <RMSD>
3.047

$$$$
ligand
 OpenBabel11021811503D
libRbt.so/2013.1/901 2013/11/27
 12 13  0  0  0  0  0  0  0  0999 V2000
    4.6978   15.4721    3.9670 C   0  0  0  0  0  0  0  0  0  0  0  0
    6.0498   17.0790    2.9547 C   0  0  0  0  0  0  0  0  0  0  0  0
    4.0153   14.3344    3.8742 N   0  0  0  0  0  0  0  0  0  0  0  0
    6.6876   17.5947    1.8981 N   0  0  0  0  0  0  0  0  0  0  0  0
    5.3361   15.9480    2.8756 N   0  0  0  0  0  0  0  0  0  0  0  0
    4.7646   16.1173    5.1527 N   0  0  0  0  0  0  0  0  0  0  0  0
    6.9114   19.6386    5.4793 N   0  0  0  0  0  0  0  0  0  0  0  0
    6.2398   19.1110    6.5929 C   0  0  0  0  0  0  0  0  0  0  0  0
    5.5004   17.9115    6.4698 N   0  0  0  0  0  0  0  0  0  0  0  0
    5.4653   17.2716    5.2810 C   0  0  0  0  0  0  0  0  0  0  0  0
    6.1385   17.7783    4.1647 C   0  0  0  0  0  0  0  0  0  0  0  0
    6.8681   18.9630    4.2436 C   0  0  0  0  0  0  0  0  0  0  0  0
  1  3  1  0  0  0  0
  1  5  1  0  0  0  0
  1  6  2  0  0  0  0
  2  5  2  0  0  0  0
  2 11  1  0  0  0  0
  2  4  1  0  0  0  0
  6 10  1  0  0  0  0
  7  8  2  0  0  0  0
  7 12  1  0  0  0  0
  8  9  1  0  0  0  0
  9 10  2  0  0  0  0
 10 11  1  0  0  0  0
 11 12  2  0  0  0  0
M  END
>  <CHROM.1>
5.70853359,17.24189460,4.40352207,2.26987334,-0.95438356,-2.01368007

>  <Name>
ligand

>  <RI>
0

>  <Rbt.Current_Directory>
/home/itssahil/PROJECTS/Mol_Feturizer/New_Systems/rnas/4LX5

>  <Rbt.Executable>
rbdock ($Id: //depot/dev/client3/rdock/2013.1/src/exe/rbdock.cxx#4 $)

>  <Rbt.Library>
libRbt.so (2013.1, Build901 2013/11/27)

>  <Rbt.Parameter_File>
/export/apps/rDock/src/rDock_2013.1_src/data/scripts/dock_solv.prm

>  <Rbt.Receptor>
prm/blind_docking_40.prm

>  <SCORE>
-15.0719

>  <SCORE.INTER>
-15.0719

>  <SCORE.INTER.CONST>
1

>  <SCORE.INTER.POLAR>
0

>  <SCORE.INTER.ROT>
0

>  <SCORE.INTER.SOLV>
15.6535

>  <SCORE.INTER.VDW>
-18.8658

>  <SCORE.INTER.norm>
-1.25599

>  <SCORE.INTRA>
0

>  <SCORE.INTRA.DIHEDRAL>
0

>  <SCORE.INTRA.DIHEDRAL.0>
0

>  <SCORE.INTRA.POLAR>
0

>  <SCORE.INTRA.POLAR.0>
0

>  <SCORE.INTRA.REPUL>
0

>  <SCORE.INTRA.REPUL.0>
0

>  <SCORE.INTRA.SOLV>
0

>  <SCORE.INTRA.SOLV.lig_0>
-48.1583

>  <SCORE.INTRA.VDW>
0

>  <SCORE.INTRA.VDW.0>
0

>  <SCORE.INTRA.norm>
0

>  <SCORE.RESTR>
0

>  <SCORE.RESTR.CAVITY>
0

>  <SCORE.RESTR.norm>
0

>  <SCORE.SYSTEM>
0

>  <SCORE.SYSTEM.CONST>
0

>  <SCORE.SYSTEM.DIHEDRAL>
0

>  <SCORE.SYSTEM.SOLV>
0

>  <SCORE.SYSTEM.norm>
0

>  <SCORE.heavy>
12

>  <SCORE.norm>
-1.25599

>  <RMSD>
3.047

$$$$
ligand
 OpenBabel11021811503D
libRbt.so/2013.1/901 2013/11/27
 12 13  0  0  0  0  0  0  0  0999 V2000
    4.6786   15.4739    3.9514 C   0  0  0  0  0  0  0  0  0  0  0  0
    6.0463   17.0811    2.9609 C   0  0  0  0  0  0  0  0  0  0  0  0
    3.9922   14.3396    3.8457 N   0  0  0  0  0  0  0  0  0  0  0  0
    6.6955   17.6005    1.9132 N   0  0  0  0  0  0  0  0  0  0  0  0
    5.3286   15.9537    2.8686 N   0  0  0  0  0  0  0  0  0  0  0  0
    4.7375   16.1116    5.1416 N   0  0  0  0  0  0  0  0  0  0  0  0
    6.8959   19.6218    5.5086 N   0  0  0  0  0  0  0  0  0  0  0  0
    6.2124   19.0902    6.6130 C   0  0  0  0  0  0  0  0  0  0  0  0
    5.4690   17.8947    6.4760 N   0  0  0  0  0  0  0  0  0  0  0  0
    5.4419   17.2621    5.2831 C   0  0  0  0  0  0  0  0  0  0  0  0
    6.1270   17.7727    4.1758 C   0  0  0  0  0  0  0  0  0  0  0  0
    6.8609   18.9538    4.2685 C   0  0  0  0  0  0  0  0  0  0  0  0
  1  3  1  0  0  0  0
  1  5  1  0  0  0  0
  1  6  2  0  0  0  0
  2  5  2  0  0  0  0
  2 11  1  0  0  0  0
  2  4  1  0  0  0  0
  6 10  1  0  0  0  0
  7  8  2  0  0  0  0
  7 12  1  0  0  0  0
  8  9  1  0  0  0  0
  9 10  2  0  0  0  0
 10 11  1  0  0  0  0
 11 12  2  0  0  0  0
M  END
>  <CHROM.1>
5.69277992,17.23668560,4.40761035,2.25918409,-0.94679858,-2.01631707

>  <Name>
ligand

>  <RI>
0

>  <Rbt.Current_Directory>
/home/itssahil/PROJECTS/Mol_Feturizer/New_Systems/rnas/4LX5

>  <Rbt.Executable>
rbdock ($Id: //depot/dev/client3/rdock/2013.1/src/exe/rbdock.cxx#4 $)

>  <Rbt.Library>
libRbt.so (2013.1, Build901 2013/11/27)

>  <Rbt.Parameter_File>
/export/apps/rDock/src/rDock_2013.1_src/data/scripts/dock_solv.prm

>  <Rbt.Receptor>
prm/blind_docking_60.prm

>  <SCORE>
-15.0508

>  <SCORE.INTER>
-15.0508

>  <SCORE.INTER.CONST>
1

>  <SCORE.INTER.POLAR>
0

>  <SCORE.INTER.ROT>
0

>  <SCORE.INTER.SOLV>
15.509

>  <SCORE.INTER.VDW>
-18.8035

>  <SCORE.INTER.norm>
-1.25423

>  <SCORE.INTRA>
0

>  <SCORE.INTRA.DIHEDRAL>
0

>  <SCORE.INTRA.DIHEDRAL.0>
0

>  <SCORE.INTRA.POLAR>
0

>  <SCORE.INTRA.POLAR.0>
0

>  <SCORE.INTRA.REPUL>
0

>  <SCORE.INTRA.REPUL.0>
0

>  <SCORE.INTRA.SOLV>
0

>  <SCORE.INTRA.SOLV.lig_0>
-48.1583

>  <SCORE.INTRA.VDW>
0

>  <SCORE.INTRA.VDW.0>
0

>  <SCORE.INTRA.norm>
0

>  <SCORE.RESTR>
0

>  <SCORE.RESTR.CAVITY>
0

>  <SCORE.RESTR.norm>
0

>  <SCORE.SYSTEM>
0

>  <SCORE.SYSTEM.CONST>
0

>  <SCORE.SYSTEM.DIHEDRAL>
0

>  <SCORE.SYSTEM.SOLV>
0

>  <SCORE.SYSTEM.norm>
0

>  <SCORE.heavy>
12

>  <SCORE.norm>
-1.25423

>  <RMSD>
3.047

$$$$
ligand
 OpenBabel11021811503D
libRbt.so/2013.1/901 2013/11/27
 12 13  0  0  0  0  0  0  0  0999 V2000
    4.6898   15.3928    3.9493 C   0  0  0  0  0  0  0  0  0  0  0  0
    6.0118   17.0240    2.9361 C   0  0  0  0  0  0  0  0  0  0  0  0
    4.0250   14.2447    3.8559 N   0  0  0  0  0  0  0  0  0  0  0  0
    6.6366   17.5531    1.8784 N   0  0  0  0  0  0  0  0  0  0  0  0
    5.3157   15.8822    2.8566 N   0  0  0  0  0  0  0  0  0  0  0  0
    4.7517   16.0353    5.1367 N   0  0  0  0  0  0  0  0  0  0  0  0
    6.8439   19.5891    5.4650 N   0  0  0  0  0  0  0  0  0  0  0  0
    6.1858   19.0474    6.5799 C   0  0  0  0  0  0  0  0  0  0  0  0
    5.4649   17.8368    6.4563 N   0  0  0  0  0  0  0  0  0  0  0  0
    5.4346   17.2001    5.2656 C   0  0  0  0  0  0  0  0  0  0  0  0
    6.0947   17.7208    4.1479 C   0  0  0  0  0  0  0  0  0  0  0  0
    6.8059   18.9167    4.2274 C   0  0  0  0  0  0  0  0  0  0  0  0
  1  3  1  0  0  0  0
  1  5  1  0  0  0  0
  1  6  2  0  0  0  0
  2  5  2  0  0  0  0
  2 11  1  0  0  0  0
  2  4  1  0  0  0  0
  6 10  1  0  0  0  0
  7  8  2  0  0  0  0
  7 12  1  0  0  0  0
  8  9  1  0  0  0  0
  9 10  2  0  0  0  0
 10 11  1  0  0  0  0
 11 12  2  0  0  0  0
M  END
>  <CHROM.1>
5.67440590,17.17698541,4.38693644,2.26500734,-0.97059932,-2.01452434

>  <Name>
ligand

>  <RI>
0

>  <Rbt.Current_Directory>
/home/itssahil/PROJECTS/Mol_Feturizer/New_Systems/rnas/4LX5

>  <Rbt.Executable>
rbdock ($Id: //depot/dev/client3/rdock/2013.1/src/exe/rbdock.cxx#4 $)

>  <Rbt.Library>
libRbt.so (2013.1, Build901 2013/11/27)

>  <Rbt.Parameter_File>
/export/apps/rDock/src/rDock_2013.1_src/data/scripts/dock_solv.prm

>  <Rbt.Receptor>
prm/blind_docking_80.prm

>  <SCORE>
-15.0409

>  <SCORE.INTER>
-15.0409

>  <SCORE.INTER.CONST>
1

>  <SCORE.INTER.POLAR>
0

>  <SCORE.INTER.ROT>
0

>  <SCORE.INTER.SOLV>
15.6586

>  <SCORE.INTER.VDW>
-18.8468

>  <SCORE.INTER.norm>
-1.2534

>  <SCORE.INTRA>
0

>  <SCORE.INTRA.DIHEDRAL>
0

>  <SCORE.INTRA.DIHEDRAL.0>
0

>  <SCORE.INTRA.POLAR>
0

>  <SCORE.INTRA.POLAR.0>
0

>  <SCORE.INTRA.REPUL>
0

>  <SCORE.INTRA.REPUL.0>
0

>  <SCORE.INTRA.SOLV>
0

>  <SCORE.INTRA.SOLV.lig_0>
-48.1583

>  <SCORE.INTRA.VDW>
0

>  <SCORE.INTRA.VDW.0>
0

>  <SCORE.INTRA.norm>
0

>  <SCORE.RESTR>
0

>  <SCORE.RESTR.CAVITY>
0

>  <SCORE.RESTR.norm>
0

>  <SCORE.SYSTEM>
0

>  <SCORE.SYSTEM.CONST>
0

>  <SCORE.SYSTEM.DIHEDRAL>
0

>  <SCORE.SYSTEM.SOLV>
0

>  <SCORE.SYSTEM.norm>
0

>  <SCORE.heavy>
12

>  <SCORE.norm>
-1.2534

>  <RMSD>
3.047

$$$$
ligand
 OpenBabel11021811503D
libRbt.so/2013.1/901 2013/11/27
 12 13  0  0  0  0  0  0  0  0999 V2000
    4.6754   15.4767    3.9551 C   0  0  0  0  0  0  0  0  0  0  0  0
    6.0404   17.0774    2.9505 C   0  0  0  0  0  0  0  0  0  0  0  0
    3.9900   14.3410    3.8591 N   0  0  0  0  0  0  0  0  0  0  0  0
    6.6881   17.5892    1.8980 N   0  0  0  0  0  0  0  0  0  0  0  0
    5.3237   15.9486    2.8679 N   0  0  0  0  0  0  0  0  0  0  0  0
    4.7351   16.1238    5.1402 N   0  0  0  0  0  0  0  0  0  0  0  0
    6.8906   19.6388    5.4772 N   0  0  0  0  0  0  0  0  0  0  0  0
    6.2088   19.1153    6.5865 C   0  0  0  0  0  0  0  0  0  0  0  0
    5.4664   17.9180    6.4598 N   0  0  0  0  0  0  0  0  0  0  0  0
    5.4385   17.2761    5.2719 C   0  0  0  0  0  0  0  0  0  0  0  0
    6.1220   17.7785    4.1599 C   0  0  0  0  0  0  0  0  0  0  0  0
    6.8548   18.9611    4.2424 C   0  0  0  0  0  0  0  0  0  0  0  0
  1  3  1  0  0  0  0
  1  5  1  0  0  0  0
  1  6  2  0  0  0  0
  2  5  2  0  0  0  0
  2 11  1  0  0  0  0
  2  4  1  0  0  0  0
  6 10  1  0  0  0  0
  7  8  2  0  0  0  0
  7 12  1  0  0  0  0
  8  9  1  0  0  0  0
  9 10  2  0  0  0  0
 10 11  1  0  0  0  0
 11 12  2  0  0  0  0
M  END
>  <CHROM.1>
5.68845354,17.24399098,4.39633555,2.26023561,-0.94812536,-2.02330863

>  <Name>
ligand

>  <RI>
0

>  <Rbt.Current_Directory>
/home/itssahil/PROJECTS/Mol_Feturizer/New_Systems/rnas/4LX5

>  <Rbt.Executable>
rbdock ($Id: //depot/dev/client3/rdock/2013.1/src/exe/rbdock.cxx#4 $)

>  <Rbt.Library>
libRbt.so (2013.1, Build901 2013/11/27)

>  <Rbt.Parameter_File>
/export/apps/rDock/src/rDock_2013.1_src/data/scripts/dock_solv.prm

>  <Rbt.Receptor>
prm/pocket_docking_3.prm

>  <SCORE>
-15.0829

>  <SCORE.INTER>
-15.0829

>  <SCORE.INTER.CONST>
1

>  <SCORE.INTER.POLAR>
0

>  <SCORE.INTER.ROT>
0

>  <SCORE.INTER.SOLV>
15.5221

>  <SCORE.INTER.VDW>
-18.8293

>  <SCORE.INTER.norm>
-1.25691

>  <SCORE.INTRA>
0

>  <SCORE.INTRA.DIHEDRAL>
0

>  <SCORE.INTRA.DIHEDRAL.0>
0

>  <SCORE.INTRA.POLAR>
0

>  <SCORE.INTRA.POLAR.0>
0

>  <SCORE.INTRA.REPUL>
0

>  <SCORE.INTRA.REPUL.0>
0

>  <SCORE.INTRA.SOLV>
0

>  <SCORE.INTRA.SOLV.lig_0>
-48.1583

>  <SCORE.INTRA.VDW>
0

>  <SCORE.INTRA.VDW.0>
0

>  <SCORE.INTRA.norm>
0

>  <SCORE.RESTR>
0

>  <SCORE.RESTR.CAVITY>
0

>  <SCORE.RESTR.norm>
0

>  <SCORE.SYSTEM>
0

>  <SCORE.SYSTEM.CONST>
0

>  <SCORE.SYSTEM.DIHEDRAL>
0

>  <SCORE.SYSTEM.SOLV>
0

>  <SCORE.SYSTEM.norm>
0

>  <SCORE.heavy>
12

>  <SCORE.norm>
-1.25691

>  <RMSD>
3.047

$$$$
ligand
 OpenBabel11021811503D
libRbt.so/2013.1/901 2013/11/27
 12 13  0  0  0  0  0  0  0  0999 V2000
    4.6901   15.3915    3.9533 C   0  0  0  0  0  0  0  0  0  0  0  0
    6.0090   17.0210    2.9334 C   0  0  0  0  0  0  0  0  0  0  0  0
    4.0255   14.2429    3.8641 N   0  0  0  0  0  0  0  0  0  0  0  0
    6.6311   17.5478    1.8730 N   0  0  0  0  0  0  0  0  0  0  0  0
    5.3132   15.8786    2.8581 N   0  0  0  0  0  0  0  0  0  0  0  0
    4.7544   16.0367    5.1392 N   0  0  0  0  0  0  0  0  0  0  0  0
    6.8459   19.5921    5.4545 N   0  0  0  0  0  0  0  0  0  0  0  0
    6.1906   19.0528    6.5722 C   0  0  0  0  0  0  0  0  0  0  0  0
    5.4699   17.8416    6.4529 N   0  0  0  0  0  0  0  0  0  0  0  0
    5.4371   17.2022    5.2638 C   0  0  0  0  0  0  0  0  0  0  0  0
    6.0945   17.7206    4.1434 C   0  0  0  0  0  0  0  0  0  0  0  0
    6.8053   18.9169    4.2185 C   0  0  0  0  0  0  0  0  0  0  0  0
  1  3  1  0  0  0  0
  1  5  1  0  0  0  0
  1  6  2  0  0  0  0
  2  5  2  0  0  0  0
  2 11  1  0  0  0  0
  2  4  1  0  0  0  0
  6 10  1  0  0  0  0
  7  8  2  0  0  0  0
  7 12  1  0  0  0  0
  8  9  1  0  0  0  0
  9 10  2  0  0  0  0
 10 11  1  0  0  0  0
 11 12  2  0  0  0  0
M  END
>  <CHROM.1>
5.67490982,17.17710143,4.38464224,2.26839160,-0.97195449,-2.01402032

>  <Name>
ligand

>  <RI>
0

>  <Rbt.Current_Directory>
/home/itssahil/PROJECTS/Mol_Feturizer/New_Systems/rnas/4LX5

>  <Rbt.Executable>
rbdock ($Id: //depot/dev/client3/rdock/2013.1/src/exe/rbdock.cxx#4 $)

>  <Rbt.Library>
libRbt.so (2013.1, Build901 2013/11/27)

>  <Rbt.Parameter_File>
/export/apps/rDock/src/rDock_2013.1_src/data/scripts/dock_solv.prm

>  <Rbt.Receptor>
prm/pocket_docking_3.prm

>  <SCORE>
-15.0413

>  <SCORE.INTER>
-15.0413

>  <SCORE.INTER.CONST>
1

>  <SCORE.INTER.POLAR>
0

>  <SCORE.INTER.ROT>
0

>  <SCORE.INTER.SOLV>
15.6645

>  <SCORE.INTER.VDW>
-18.849

>  <SCORE.INTER.norm>
-1.25344

>  <SCORE.INTRA>
0

>  <SCORE.INTRA.DIHEDRAL>
0

>  <SCORE.INTRA.DIHEDRAL.0>
0

>  <SCORE.INTRA.POLAR>
0

>  <SCORE.INTRA.POLAR.0>
0

>  <SCORE.INTRA.REPUL>
0

>  <SCORE.INTRA.REPUL.0>
0

>  <SCORE.INTRA.SOLV>
0

>  <SCORE.INTRA.SOLV.lig_0>
-48.1583

>  <SCORE.INTRA.VDW>
0

>  <SCORE.INTRA.VDW.0>
0

>  <SCORE.INTRA.norm>
0

>  <SCORE.RESTR>
0

>  <SCORE.RESTR.CAVITY>
0

>  <SCORE.RESTR.norm>
0

>  <SCORE.SYSTEM>
0

>  <SCORE.SYSTEM.CONST>
0

>  <SCORE.SYSTEM.DIHEDRAL>
0

>  <SCORE.SYSTEM.SOLV>
0

>  <SCORE.SYSTEM.norm>
0

>  <SCORE.heavy>
12

>  <SCORE.norm>
-1.25344

>  <RMSD>
3.047

$$$$
ligand
 OpenBabel11021811503D
libRbt.so/2013.1/901 2013/11/27
 12 13  0  0  0  0  0  0  0  0999 V2000
    4.6793   15.4782    3.9573 C   0  0  0  0  0  0  0  0  0  0  0  0
    6.0430   17.0797    2.9521 C   0  0  0  0  0  0  0  0  0  0  0  0
    3.9935   14.3427    3.8612 N   0  0  0  0  0  0  0  0  0  0  0  0
    6.6890   17.5925    1.8992 N   0  0  0  0  0  0  0  0  0  0  0  0
    5.3260   15.9511    2.8695 N   0  0  0  0  0  0  0  0  0  0  0  0
    4.7410   16.1240    5.1430 N   0  0  0  0  0  0  0  0  0  0  0  0
    6.8976   19.6383    5.4802 N   0  0  0  0  0  0  0  0  0  0  0  0
    6.2175   19.1138    6.5900 C   0  0  0  0  0  0  0  0  0  0  0  0
    5.4748   17.9167    6.4632 N   0  0  0  0  0  0  0  0  0  0  0  0
    5.4448   17.2761    5.2747 C   0  0  0  0  0  0  0  0  0  0  0  0
    6.1266   17.7796    4.1622 C   0  0  0  0  0  0  0  0  0  0  0  0
    6.8597   18.9619    4.2447 C   0  0  0  0  0  0  0  0  0  0  0  0
  1  3  1  0  0  0  0
  1  5  1  0  0  0  0
  1  6  2  0  0  0  0
  2  5  2  0  0  0  0
  2 11  1  0  0  0  0
  2  4  1  0  0  0  0
  6 10  1  0  0  0  0
  7  8  2  0  0  0  0
  7 12  1  0  0  0  0
  8  9  1  0  0  0  0
  9 10  2  0  0  0  0
 10 11  1  0  0  0  0
 11 12  2  0  0  0  0
M  END
>  <CHROM.1>
5.69334926,17.24485240,4.39873936,2.26283040,-0.94868744,-2.02015072

>  <Name>
ligand

>  <RI>
0

>  <Rbt.Current_Directory>
/home/itssahil/PROJECTS/Mol_Feturizer/New_Systems/rnas/4LX5

>  <Rbt.Executable>
rbdock ($Id: //depot/dev/client3/rdock/2013.1/src/exe/rbdock.cxx#4 $)

>  <Rbt.Library>
libRbt.so (2013.1, Build901 2013/11/27)

>  <Rbt.Parameter_File>
/export/apps/rDock/src/rDock_2013.1_src/data/scripts/dock_solv.prm

>  <Rbt.Receptor>
prm/pocket_docking_4.prm

>  <SCORE>
-15.0823

>  <SCORE.INTER>
-15.0823

>  <SCORE.INTER.CONST>
1

>  <SCORE.INTER.POLAR>
0

>  <SCORE.INTER.ROT>
0

>  <SCORE.INTER.SOLV>
15.5384

>  <SCORE.INTER.VDW>
-18.8343

>  <SCORE.INTER.norm>
-1.25686

>  <SCORE.INTRA>
0

>  <SCORE.INTRA.DIHEDRAL>
0

>  <SCORE.INTRA.DIHEDRAL.0>
0

>  <SCORE.INTRA.POLAR>
0

>  <SCORE.INTRA.POLAR.0>
0

>  <SCORE.INTRA.REPUL>
0

>  <SCORE.INTRA.REPUL.0>
0

>  <SCORE.INTRA.SOLV>
0

>  <SCORE.INTRA.SOLV.lig_0>
-48.1583

>  <SCORE.INTRA.VDW>
0

>  <SCORE.INTRA.VDW.0>
0

>  <SCORE.INTRA.norm>
0

>  <SCORE.RESTR>
0

>  <SCORE.RESTR.CAVITY>
0

>  <SCORE.RESTR.norm>
0

>  <SCORE.SYSTEM>
0

>  <SCORE.SYSTEM.CONST>
0

>  <SCORE.SYSTEM.DIHEDRAL>
0

>  <SCORE.SYSTEM.SOLV>
0

>  <SCORE.SYSTEM.norm>
0

>  <SCORE.heavy>
12

>  <SCORE.norm>
-1.25686

>  <RMSD>
3.047

$$$$
ligand
 OpenBabel11021811503D
libRbt.so/2013.1/901 2013/11/27
 12 13  0  0  0  0  0  0  0  0999 V2000
    4.6897   15.4737    3.9641 C   0  0  0  0  0  0  0  0  0  0  0  0
    6.0449   17.0784    2.9526 C   0  0  0  0  0  0  0  0  0  0  0  0
    4.0058   14.3368    3.8711 N   0  0  0  0  0  0  0  0  0  0  0  0
    6.6845   17.5929    1.8966 N   0  0  0  0  0  0  0  0  0  0  0  0
    5.3298   15.9484    2.8732 N   0  0  0  0  0  0  0  0  0  0  0  0
    4.7560   16.1193    5.1497 N   0  0  0  0  0  0  0  0  0  0  0  0
    6.9069   19.6380    5.4771 N   0  0  0  0  0  0  0  0  0  0  0  0
    6.2335   19.1117    6.5902 C   0  0  0  0  0  0  0  0  0  0  0  0
    5.4926   17.9132    6.4668 N   0  0  0  0  0  0  0  0  0  0  0  0
    5.4580   17.2728    5.2782 C   0  0  0  0  0  0  0  0  0  0  0  0
    6.1331   17.7781    4.1624 C   0  0  0  0  0  0  0  0  0  0  0  0
    6.8642   18.9619    4.2417 C   0  0  0  0  0  0  0  0  0  0  0  0
  1  3  1  0  0  0  0
  1  5  1  0  0  0  0
  1  6  2  0  0  0  0
  2  5  2  0  0  0  0
  2 11  1  0  0  0  0
  2  4  1  0  0  0  0
  6 10  1  0  0  0  0
  7  8  2  0  0  0  0
  7 12  1  0  0  0  0
  8  9  1  0  0  0  0
  9 10  2  0  0  0  0
 10 11  1  0  0  0  0
 11 12  2  0  0  0  0
M  END
>  <CHROM.1>
5.70221188,17.24239123,4.40101246,2.26907793,-0.95274716,-2.01475819

>  <Name>
ligand

>  <RI>
0

>  <Rbt.Current_Directory>
/home/itssahil/PROJECTS/Mol_Feturizer/New_Systems/rnas/4LX5

>  <Rbt.Executable>
rbdock ($Id: //depot/dev/client3/rdock/2013.1/src/exe/rbdock.cxx#4 $)

>  <Rbt.Library>
libRbt.so (2013.1, Build901 2013/11/27)

>  <Rbt.Parameter_File>
/export/apps/rDock/src/rDock_2013.1_src/data/scripts/dock_solv.prm

>  <Rbt.Receptor>
prm/pocket_docking_4.prm

>  <SCORE>
-15.0788

>  <SCORE.INTER>
-15.0788

>  <SCORE.INTER.CONST>
1

>  <SCORE.INTER.POLAR>
0

>  <SCORE.INTER.ROT>
0

>  <SCORE.INTER.SOLV>
15.6027

>  <SCORE.INTER.VDW>
-18.8534

>  <SCORE.INTER.norm>
-1.25657

>  <SCORE.INTRA>
0

>  <SCORE.INTRA.DIHEDRAL>
0

>  <SCORE.INTRA.DIHEDRAL.0>
0

>  <SCORE.INTRA.POLAR>
0

>  <SCORE.INTRA.POLAR.0>
0

>  <SCORE.INTRA.REPUL>
0

>  <SCORE.INTRA.REPUL.0>
0

>  <SCORE.INTRA.SOLV>
0

>  <SCORE.INTRA.SOLV.lig_0>
-48.1583

>  <SCORE.INTRA.VDW>
0

>  <SCORE.INTRA.VDW.0>
0

>  <SCORE.INTRA.norm>
0

>  <SCORE.RESTR>
0

>  <SCORE.RESTR.CAVITY>
0

>  <SCORE.RESTR.norm>
0

>  <SCORE.SYSTEM>
0

>  <SCORE.SYSTEM.CONST>
0

>  <SCORE.SYSTEM.DIHEDRAL>
0

>  <SCORE.SYSTEM.SOLV>
0

>  <SCORE.SYSTEM.norm>
0

>  <SCORE.heavy>
12

>  <SCORE.norm>
-1.25657

>  <RMSD>
3.047

$$$$
ligand
 OpenBabel11021811503D
libRbt.so/2013.1/901 2013/11/27
 12 13  0  0  0  0  0  0  0  0999 V2000
    4.6850   15.3967    3.9483 C   0  0  0  0  0  0  0  0  0  0  0  0
    6.0162   17.0231    2.9394 C   0  0  0  0  0  0  0  0  0  0  0  0
    4.0157   14.2515    3.8525 N   0  0  0  0  0  0  0  0  0  0  0  0
    6.6458   17.5503    1.8836 N   0  0  0  0  0  0  0  0  0  0  0  0
    5.3156   15.8842    2.8574 N   0  0  0  0  0  0  0  0  0  0  0  0
    4.7467   16.0381    5.1363 N   0  0  0  0  0  0  0  0  0  0  0  0
    6.8528   19.5830    5.4721 N   0  0  0  0  0  0  0  0  0  0  0  0
    6.1897   19.0433    6.5851 C   0  0  0  0  0  0  0  0  0  0  0  0
    5.4641   17.8358    6.4588 N   0  0  0  0  0  0  0  0  0  0  0  0
    5.4341   17.2001    5.2676 C   0  0  0  0  0  0  0  0  0  0  0  0
    6.0991   17.7188    4.1519 C   0  0  0  0  0  0  0  0  0  0  0  0
    6.8150   18.9117    4.2340 C   0  0  0  0  0  0  0  0  0  0  0  0
  1  3  1  0  0  0  0
  1  5  1  0  0  0  0
  1  6  2  0  0  0  0
  2  5  2  0  0  0  0
  2 11  1  0  0  0  0
  2  4  1  0  0  0  0
  6 10  1  0  0  0  0
  7  8  2  0  0  0  0
  7 12  1  0  0  0  0
  8  9  1  0  0  0  0
  9 10  2  0  0  0  0
 10 11  1  0  0  0  0
 11 12  2  0  0  0  0
M  END
>  <CHROM.1>
5.67591712,17.17651892,4.38955896,2.26425559,-0.96579645,-2.01446484

>  <Name>
ligand

>  <RI>
0

>  <Rbt.Current_Directory>
/home/itssahil/PROJECTS/Mol_Feturizer/New_Systems/rnas/4LX5

>  <Rbt.Executable>
rbdock ($Id: //depot/dev/client3/rdock/2013.1/src/exe/rbdock.cxx#4 $)

>  <Rbt.Library>
libRbt.so (2013.1, Build901 2013/11/27)

>  <Rbt.Parameter_File>
/export/apps/rDock/src/rDock_2013.1_src/data/scripts/dock_solv.prm

>  <Rbt.Receptor>
prm/pocket_docking_5.prm

>  <SCORE>
-15.0374

>  <SCORE.INTER>
-15.0374

>  <SCORE.INTER.CONST>
1

>  <SCORE.INTER.POLAR>
0

>  <SCORE.INTER.ROT>
0

>  <SCORE.INTER.SOLV>
15.6148

>  <SCORE.INTER.VDW>
-18.8298

>  <SCORE.INTER.norm>
-1.25311

>  <SCORE.INTRA>
0

>  <SCORE.INTRA.DIHEDRAL>
0

>  <SCORE.INTRA.DIHEDRAL.0>
0

>  <SCORE.INTRA.POLAR>
0

>  <SCORE.INTRA.POLAR.0>
0

>  <SCORE.INTRA.REPUL>
0

>  <SCORE.INTRA.REPUL.0>
0

>  <SCORE.INTRA.SOLV>
0

>  <SCORE.INTRA.SOLV.lig_0>
-48.1583

>  <SCORE.INTRA.VDW>
0

>  <SCORE.INTRA.VDW.0>
0

>  <SCORE.INTRA.norm>
0

>  <SCORE.RESTR>
0

>  <SCORE.RESTR.CAVITY>
0

>  <SCORE.RESTR.norm>
0

>  <SCORE.SYSTEM>
0

>  <SCORE.SYSTEM.CONST>
0

>  <SCORE.SYSTEM.DIHEDRAL>
0

>  <SCORE.SYSTEM.SOLV>
0

>  <SCORE.SYSTEM.norm>
0

>  <SCORE.heavy>
12

>  <SCORE.norm>
-1.25311

>  <RMSD>
3.047

$$$$
ligand
 OpenBabel11021811503D
libRbt.so/2013.1/901 2013/11/27
 12 13  0  0  0  0  0  0  0  0999 V2000
    4.6839   15.3889    3.9417 C   0  0  0  0  0  0  0  0  0  0  0  0
    6.0151   17.0201    2.9405 C   0  0  0  0  0  0  0  0  0  0  0  0
    4.0190   14.2414    3.8420 N   0  0  0  0  0  0  0  0  0  0  0  0
    6.6486   17.5497    1.8883 N   0  0  0  0  0  0  0  0  0  0  0  0
    5.3188   15.8788    2.8544 N   0  0  0  0  0  0  0  0  0  0  0  0
    4.7369   16.0302    5.1302 N   0  0  0  0  0  0  0  0  0  0  0  0
    6.8292   19.5821    5.4784 N   0  0  0  0  0  0  0  0  0  0  0  0
    6.1619   19.0399    6.5876 C   0  0  0  0  0  0  0  0  0  0  0  0
    5.4410   17.8299    6.4571 N   0  0  0  0  0  0  0  0  0  0  0  0
    5.4197   17.1944    5.2656 C   0  0  0  0  0  0  0  0  0  0  0  0
    6.0890   17.7157    4.1536 C   0  0  0  0  0  0  0  0  0  0  0  0
    6.8004   18.9110    4.2399 C   0  0  0  0  0  0  0  0  0  0  0  0
  1  3  1  0  0  0  0
  1  5  1  0  0  0  0
  1  6  2  0  0  0  0
  2  5  2  0  0  0  0
  2 11  1  0  0  0  0
  2  4  1  0  0  0  0
  6 10  1  0  0  0  0
  7  8  2  0  0  0  0
  7 12  1  0  0  0  0
  8  9  1  0  0  0  0
  9 10  2  0  0  0  0
 10 11  1  0  0  0  0
 11 12  2  0  0  0  0
M  END
>  <CHROM.1>
5.66638428,17.17193641,4.38882648,2.25302311,-0.96649054,-2.02344808

>  <Name>
ligand

>  <RI>
0

>  <Rbt.Current_Directory>
/home/itssahil/PROJECTS/Mol_Feturizer/New_Systems/rnas/4LX5

>  <Rbt.Executable>
rbdock ($Id: //depot/dev/client3/rdock/2013.1/src/exe/rbdock.cxx#4 $)

>  <Rbt.Library>
libRbt.so (2013.1, Build901 2013/11/27)

>  <Rbt.Parameter_File>
/export/apps/rDock/src/rDock_2013.1_src/data/scripts/dock_solv.prm

>  <Rbt.Receptor>
prm/pocket_docking_5.prm

>  <SCORE>
-15.0379

>  <SCORE.INTER>
-15.0379

>  <SCORE.INTER.CONST>
1

>  <SCORE.INTER.POLAR>
0

>  <SCORE.INTER.ROT>
0

>  <SCORE.INTER.SOLV>
15.6291

>  <SCORE.INTER.VDW>
-18.835

>  <SCORE.INTER.norm>
-1.25315

>  <SCORE.INTRA>
0

>  <SCORE.INTRA.DIHEDRAL>
0

>  <SCORE.INTRA.DIHEDRAL.0>
0

>  <SCORE.INTRA.POLAR>
0

>  <SCORE.INTRA.POLAR.0>
0

>  <SCORE.INTRA.REPUL>
0

>  <SCORE.INTRA.REPUL.0>
0

>  <SCORE.INTRA.SOLV>
0

>  <SCORE.INTRA.SOLV.lig_0>
-48.1583

>  <SCORE.INTRA.VDW>
0

>  <SCORE.INTRA.VDW.0>
0

>  <SCORE.INTRA.norm>
0

>  <SCORE.RESTR>
0

>  <SCORE.RESTR.CAVITY>
0

>  <SCORE.RESTR.norm>
0

>  <SCORE.SYSTEM>
0

>  <SCORE.SYSTEM.CONST>
0

>  <SCORE.SYSTEM.DIHEDRAL>
0

>  <SCORE.SYSTEM.SOLV>
0

>  <SCORE.SYSTEM.norm>
0

>  <SCORE.heavy>
12

>  <SCORE.norm>
-1.25315

>  <RMSD>
3.047

$$$$
ligand
 OpenBabel11021811503D
libRbt.so/2013.1/901 2013/11/27
 12 13  0  0  0  0  0  0  0  0999 V2000
    4.6903   15.3913    3.9513 C   0  0  0  0  0  0  0  0  0  0  0  0
    6.0098   17.0216    2.9334 C   0  0  0  0  0  0  0  0  0  0  0  0
    4.0269   14.2421    3.8611 N   0  0  0  0  0  0  0  0  0  0  0  0
    6.6335   17.5487    1.8740 N   0  0  0  0  0  0  0  0  0  0  0  0
    5.3151   15.8787    2.8570 N   0  0  0  0  0  0  0  0  0  0  0  0
    4.7519   16.0369    5.1371 N   0  0  0  0  0  0  0  0  0  0  0  0
    6.8399   19.5941    5.4554 N   0  0  0  0  0  0  0  0  0  0  0  0
    6.1830   19.0544    6.5720 C   0  0  0  0  0  0  0  0  0  0  0  0
    5.4635   17.8426    6.4517 N   0  0  0  0  0  0  0  0  0  0  0  0
    5.4335   17.2029    5.2627 C   0  0  0  0  0  0  0  0  0  0  0  0
    6.0924   17.7216    4.1434 C   0  0  0  0  0  0  0  0  0  0  0  0
    6.8022   18.9185    4.2195 C   0  0  0  0  0  0  0  0  0  0  0  0
  1  3  1  0  0  0  0
  1  5  1  0  0  0  0
  1  6  2  0  0  0  0
  2  5  2  0  0  0  0
  2 11  1  0  0  0  0
  2  4  1  0  0  0  0
  6 10  1  0  0  0  0
  7  8  2  0  0  0  0
  7 12  1  0  0  0  0
  8  9  1  0  0  0  0
  9 10  2  0  0  0  0
 10 11  1  0  0  0  0
 11 12  2  0  0  0  0
M  END
>  <CHROM.1>
5.67290227,17.17780478,4.38396599,2.26476946,-0.97189508,-2.01726134

>  <Name>
ligand

>  <RI>
0

>  <Rbt.Current_Directory>
/home/itssahil/PROJECTS/Mol_Feturizer/New_Systems/rnas/4LX5

>  <Rbt.Executable>
rbdock ($Id: //depot/dev/client3/rdock/2013.1/src/exe/rbdock.cxx#4 $)

>  <Rbt.Library>
libRbt.so (2013.1, Build901 2013/11/27)

>  <Rbt.Parameter_File>
/export/apps/rDock/src/rDock_2013.1_src/data/scripts/dock_solv.prm

>  <Rbt.Receptor>
prm/pocket_docking_6.prm

>  <SCORE>
-15.0414

>  <SCORE.INTER>
-15.0414

>  <SCORE.INTER.CONST>
1

>  <SCORE.INTER.POLAR>
0

>  <SCORE.INTER.ROT>
0

>  <SCORE.INTER.SOLV>
15.6731

>  <SCORE.INTER.VDW>
-18.8519

>  <SCORE.INTER.norm>
-1.25345

>  <SCORE.INTRA>
0

>  <SCORE.INTRA.DIHEDRAL>
0

>  <SCORE.INTRA.DIHEDRAL.0>
0

>  <SCORE.INTRA.POLAR>
0

>  <SCORE.INTRA.POLAR.0>
0

>  <SCORE.INTRA.REPUL>
0

>  <SCORE.INTRA.REPUL.0>
0

>  <SCORE.INTRA.SOLV>
0

>  <SCORE.INTRA.SOLV.lig_0>
-48.1583

>  <SCORE.INTRA.VDW>
0

>  <SCORE.INTRA.VDW.0>
0

>  <SCORE.INTRA.norm>
0

>  <SCORE.RESTR>
0

>  <SCORE.RESTR.CAVITY>
0

>  <SCORE.RESTR.norm>
0

>  <SCORE.SYSTEM>
0

>  <SCORE.SYSTEM.CONST>
0

>  <SCORE.SYSTEM.DIHEDRAL>
0

>  <SCORE.SYSTEM.SOLV>
0

>  <SCORE.SYSTEM.norm>
0

>  <SCORE.heavy>
12

>  <SCORE.norm>
-1.25345

>  <RMSD>
3.047

$$$$
ligand
 OpenBabel11021811503D
libRbt.so/2013.1/901 2013/11/27
 12 13  0  0  0  0  0  0  0  0999 V2000
    4.6888   15.3917    3.9540 C   0  0  0  0  0  0  0  0  0  0  0  0
    6.0068   17.0210    2.9326 C   0  0  0  0  0  0  0  0  0  0  0  0
    4.0257   14.2422    3.8660 N   0  0  0  0  0  0  0  0  0  0  0  0
    6.6292   17.5469    1.8719 N   0  0  0  0  0  0  0  0  0  0  0  0
    5.3123   15.8778    2.8585 N   0  0  0  0  0  0  0  0  0  0  0  0
    4.7515   16.0388    5.1389 N   0  0  0  0  0  0  0  0  0  0  0  0
    6.8387   19.5971    5.4504 N   0  0  0  0  0  0  0  0  0  0  0  0
    6.1831   19.0587    6.5683 C   0  0  0  0  0  0  0  0  0  0  0  0
    5.4638   17.8465    6.4504 N   0  0  0  0  0  0  0  0  0  0  0  0
    5.4328   17.2052    5.2623 C   0  0  0  0  0  0  0  0  0  0  0  0
    6.0904   17.7226    4.1416 C   0  0  0  0  0  0  0  0  0  0  0  0
    6.7998   18.9199    4.2154 C   0  0  0  0  0  0  0  0  0  0  0  0
  1  3  1  0  0  0  0
  1  5  1  0  0  0  0
  1  6  2  0  0  0  0
  2  5  2  0  0  0  0
  2 11  1  0  0  0  0
  2  4  1  0  0  0  0
  6 10  1  0  0  0  0
  7  8  2  0  0  0  0
  7 12  1  0  0  0  0
  8  9  1  0  0  0  0
  9 10  2  0  0  0  0
 10 11  1  0  0  0  0
 11 12  2  0  0  0  0
M  END
>  <CHROM.1>
5.67129508,17.17902570,4.38333887,2.26619703,-0.97262652,-2.01739776

>  <Name>
ligand

>  <RI>
0

>  <Rbt.Current_Directory>
/home/itssahil/PROJECTS/Mol_Feturizer/New_Systems/rnas/4LX5

>  <Rbt.Executable>
rbdock ($Id: //depot/dev/client3/rdock/2013.1/src/exe/rbdock.cxx#4 $)

>  <Rbt.Library>
libRbt.so (2013.1, Build901 2013/11/27)

>  <Rbt.Parameter_File>
/export/apps/rDock/src/rDock_2013.1_src/data/scripts/dock_solv.prm

>  <Rbt.Receptor>
prm/pocket_docking_6.prm

>  <SCORE>
-15.0407

>  <SCORE.INTER>
-15.0407

>  <SCORE.INTER.CONST>
1

>  <SCORE.INTER.POLAR>
0

>  <SCORE.INTER.ROT>
0

>  <SCORE.INTER.SOLV>
15.6675

>  <SCORE.INTER.VDW>
-18.8496

>  <SCORE.INTER.norm>
-1.25339

>  <SCORE.INTRA>
0

>  <SCORE.INTRA.DIHEDRAL>
0

>  <SCORE.INTRA.DIHEDRAL.0>
0

>  <SCORE.INTRA.POLAR>
0

>  <SCORE.INTRA.POLAR.0>
0

>  <SCORE.INTRA.REPUL>
0

>  <SCORE.INTRA.REPUL.0>
0

>  <SCORE.INTRA.SOLV>
0

>  <SCORE.INTRA.SOLV.lig_0>
-48.1583

>  <SCORE.INTRA.VDW>
0

>  <SCORE.INTRA.VDW.0>
0

>  <SCORE.INTRA.norm>
0

>  <SCORE.RESTR>
0

>  <SCORE.RESTR.CAVITY>
0

>  <SCORE.RESTR.norm>
0

>  <SCORE.SYSTEM>
0

>  <SCORE.SYSTEM.CONST>
0

>  <SCORE.SYSTEM.DIHEDRAL>
0

>  <SCORE.SYSTEM.SOLV>
0

>  <SCORE.SYSTEM.norm>
0

>  <SCORE.heavy>
12

>  <SCORE.norm>
-1.25339

>  <RMSD>
3.047

$$$$
ligand
 OpenBabel11021811503D
libRbt.so/2013.1/901 2013/11/27
 12 13  0  0  0  0  0  0  0  0999 V2000
    4.6886   15.4780    3.9593 C   0  0  0  0  0  0  0  0  0  0  0  0
    6.0541   17.0803    2.9577 C   0  0  0  0  0  0  0  0  0  0  0  0
    4.0033   14.3424    3.8612 N   0  0  0  0  0  0  0  0  0  0  0  0
    6.7022   17.5937    1.9063 N   0  0  0  0  0  0  0  0  0  0  0  0
    5.3375   15.9516    2.8731 N   0  0  0  0  0  0  0  0  0  0  0  0
    4.7477   16.1234    5.1454 N   0  0  0  0  0  0  0  0  0  0  0  0
    6.9029   19.6379    5.4887 N   0  0  0  0  0  0  0  0  0  0  0  0
    6.2206   19.1127    6.5969 C   0  0  0  0  0  0  0  0  0  0  0  0
    5.4783   17.9156    6.4680 N   0  0  0  0  0  0  0  0  0  0  0  0
    5.4510   17.2755    5.2791 C   0  0  0  0  0  0  0  0  0  0  0  0
    6.1350   17.7796    4.1682 C   0  0  0  0  0  0  0  0  0  0  0  0
    6.8677   18.9621    4.2529 C   0  0  0  0  0  0  0  0  0  0  0  0
  1  3  1  0  0  0  0
  1  5  1  0  0  0  0
  1  6  2  0  0  0  0
  2  5  2  0  0  0  0
  2 11  1  0  0  0  0
  2  4  1  0  0  0  0
  6 10  1  0  0  0  0
  7  8  2  0  0  0  0
  7 12  1  0  0  0  0
  8  9  1  0  0  0  0
  9 10  2  0  0  0  0
 10 11  1  0  0  0  0
 11 12  2  0  0  0  0
M  END
>  <CHROM.1>
5.70139404,17.24471307,4.40364818,2.25944125,-0.94796802,-2.02245566

>  <Name>
ligand

>  <RI>
0

>  <Rbt.Current_Directory>
/home/itssahil/PROJECTS/Mol_Feturizer/New_Systems/rnas/4LX5

>  <Rbt.Executable>
rbdock ($Id: //depot/dev/client3/rdock/2013.1/src/exe/rbdock.cxx#4 $)

>  <Rbt.Library>
libRbt.so (2013.1, Build901 2013/11/27)

>  <Rbt.Parameter_File>
/export/apps/rDock/src/rDock_2013.1_src/data/scripts/dock_solv.prm

>  <Rbt.Receptor>
prm/pocket_docking_7.prm

>  <SCORE>
-15.0747

>  <SCORE.INTER>
-15.0747

>  <SCORE.INTER.CONST>
1

>  <SCORE.INTER.POLAR>
0

>  <SCORE.INTER.ROT>
0

>  <SCORE.INTER.SOLV>
15.5948

>  <SCORE.INTER.VDW>
-18.8481

>  <SCORE.INTER.norm>
-1.25623

>  <SCORE.INTRA>
0

>  <SCORE.INTRA.DIHEDRAL>
0

>  <SCORE.INTRA.DIHEDRAL.0>
0

>  <SCORE.INTRA.POLAR>
0

>  <SCORE.INTRA.POLAR.0>
0

>  <SCORE.INTRA.REPUL>
0

>  <SCORE.INTRA.REPUL.0>
0

>  <SCORE.INTRA.SOLV>
0

>  <SCORE.INTRA.SOLV.lig_0>
-48.1583

>  <SCORE.INTRA.VDW>
0

>  <SCORE.INTRA.VDW.0>
0

>  <SCORE.INTRA.norm>
0

>  <SCORE.RESTR>
0

>  <SCORE.RESTR.CAVITY>
0

>  <SCORE.RESTR.norm>
0

>  <SCORE.SYSTEM>
0

>  <SCORE.SYSTEM.CONST>
0

>  <SCORE.SYSTEM.DIHEDRAL>
0

>  <SCORE.SYSTEM.SOLV>
0

>  <SCORE.SYSTEM.norm>
0

>  <SCORE.heavy>
12

>  <SCORE.norm>
-1.25623

>  <RMSD>
3.047

$$$$
ligand
 OpenBabel11021811503D
libRbt.so/2013.1/901 2013/11/27
 12 13  0  0  0  0  0  0  0  0999 V2000
    4.6873   15.3898    3.9505 C   0  0  0  0  0  0  0  0  0  0  0  0
    6.0109   17.0192    2.9366 C   0  0  0  0  0  0  0  0  0  0  0  0
    4.0235   14.2410    3.8584 N   0  0  0  0  0  0  0  0  0  0  0  0
    6.6382   17.5459    1.8792 N   0  0  0  0  0  0  0  0  0  0  0  0
    5.3158   15.8767    2.8582 N   0  0  0  0  0  0  0  0  0  0  0  0
    4.7456   16.0354    5.1365 N   0  0  0  0  0  0  0  0  0  0  0  0
    6.8348   19.5914    5.4610 N   0  0  0  0  0  0  0  0  0  0  0  0
    6.1740   19.0522    6.5756 C   0  0  0  0  0  0  0  0  0  0  0  0
    5.4542   17.8408    6.4532 N   0  0  0  0  0  0  0  0  0  0  0  0
    5.4275   17.2010    5.2641 C   0  0  0  0  0  0  0  0  0  0  0  0
    6.0902   17.7192    4.1468 C   0  0  0  0  0  0  0  0  0  0  0  0
    6.8004   18.9158    4.2251 C   0  0  0  0  0  0  0  0  0  0  0  0
  1  3  1  0  0  0  0
  1  5  1  0  0  0  0
  1  6  2  0  0  0  0
  2  5  2  0  0  0  0
  2 11  1  0  0  0  0
  2  4  1  0  0  0  0
  6 10  1  0  0  0  0
  7  8  2  0  0  0  0
  7 12  1  0  0  0  0
  8  9  1  0  0  0  0
  9 10  2  0  0  0  0
 10 11  1  0  0  0  0
 11 12  2  0  0  0  0
M  END
>  <CHROM.1>
5.66961072,17.17573579,4.38615120,2.26026385,-0.97000688,-2.02104954

>  <Name>
ligand

>  <RI>
0

>  <Rbt.Current_Directory>
/home/itssahil/PROJECTS/Mol_Feturizer/New_Systems/rnas/4LX5

>  <Rbt.Executable>
rbdock ($Id: //depot/dev/client3/rdock/2013.1/src/exe/rbdock.cxx#4 $)

>  <Rbt.Library>
libRbt.so (2013.1, Build901 2013/11/27)

>  <Rbt.Parameter_File>
/export/apps/rDock/src/rDock_2013.1_src/data/scripts/dock_solv.prm

>  <Rbt.Receptor>
prm/pocket_docking_7.prm

>  <SCORE>
-15.039

>  <SCORE.INTER>
-15.039

>  <SCORE.INTER.CONST>
1

>  <SCORE.INTER.POLAR>
0

>  <SCORE.INTER.ROT>
0

>  <SCORE.INTER.SOLV>
15.6578

>  <SCORE.INTER.VDW>
-18.8452

>  <SCORE.INTER.norm>
-1.25325

>  <SCORE.INTRA>
0

>  <SCORE.INTRA.DIHEDRAL>
0

>  <SCORE.INTRA.DIHEDRAL.0>
0

>  <SCORE.INTRA.POLAR>
0

>  <SCORE.INTRA.POLAR.0>
0

>  <SCORE.INTRA.REPUL>
0

>  <SCORE.INTRA.REPUL.0>
0

>  <SCORE.INTRA.SOLV>
0

>  <SCORE.INTRA.SOLV.lig_0>
-48.1583

>  <SCORE.INTRA.VDW>
0

>  <SCORE.INTRA.VDW.0>
0

>  <SCORE.INTRA.norm>
0

>  <SCORE.RESTR>
0

>  <SCORE.RESTR.CAVITY>
0

>  <SCORE.RESTR.norm>
0

>  <SCORE.SYSTEM>
0

>  <SCORE.SYSTEM.CONST>
0

>  <SCORE.SYSTEM.DIHEDRAL>
0

>  <SCORE.SYSTEM.SOLV>
0

>  <SCORE.SYSTEM.norm>
0

>  <SCORE.heavy>
12

>  <SCORE.norm>
-1.25325

>  <RMSD>
3.047

$$$$
ligand
 OpenBabel11021811503D
libRbt.so/2013.1/901 2013/11/27
 12 13  0  0  0  0  0  0  0  0999 V2000
    4.6858   15.3910    3.9467 C   0  0  0  0  0  0  0  0  0  0  0  0
    6.0103   17.0234    2.9387 C   0  0  0  0  0  0  0  0  0  0  0  0
    4.0226   14.2422    3.8508 N   0  0  0  0  0  0  0  0  0  0  0  0
    6.6389   17.5529    1.8835 N   0  0  0  0  0  0  0  0  0  0  0  0
    5.3157   15.8809    2.8565 N   0  0  0  0  0  0  0  0  0  0  0  0
    4.7421   16.0338    5.1343 N   0  0  0  0  0  0  0  0  0  0  0  0
    6.8293   19.5898    5.4706 N   0  0  0  0  0  0  0  0  0  0  0  0
    6.1671   19.0477    6.5829 C   0  0  0  0  0  0  0  0  0  0  0  0
    5.4479   17.8363    6.4564 N   0  0  0  0  0  0  0  0  0  0  0  0
    5.4233   17.1994    5.2658 C   0  0  0  0  0  0  0  0  0  0  0  0
    6.0875   17.7206    4.1507 C   0  0  0  0  0  0  0  0  0  0  0  0
    6.7971   18.9172    4.2330 C   0  0  0  0  0  0  0  0  0  0  0  0
  1  3  1  0  0  0  0
  1  5  1  0  0  0  0
  1  6  2  0  0  0  0
  2  5  2  0  0  0  0
  2 11  1  0  0  0  0
  2  4  1  0  0  0  0
  6 10  1  0  0  0  0
  7  8  2  0  0  0  0
  7 12  1  0  0  0  0
  8  9  1  0  0  0  0
  9 10  2  0  0  0  0
 10 11  1  0  0  0  0
 11 12  2  0  0  0  0
M  END
>  <CHROM.1>
5.66671888,17.17631602,4.38811664,2.25760238,-0.96973649,-2.02081274

>  <Name>
ligand

>  <RI>
0

>  <Rbt.Current_Directory>
/home/itssahil/PROJECTS/Mol_Feturizer/New_Systems/rnas/4LX5

>  <Rbt.Executable>
rbdock ($Id: //depot/dev/client3/rdock/2013.1/src/exe/rbdock.cxx#4 $)

>  <Rbt.Library>
libRbt.so (2013.1, Build901 2013/11/27)

>  <Rbt.Parameter_File>
/export/apps/rDock/src/rDock_2013.1_src/data/scripts/dock_solv.prm

>  <Rbt.Receptor>
prm/pocket_docking_8.prm

>  <SCORE>
-15.0388

>  <SCORE.INTER>
-15.0388

>  <SCORE.INTER.CONST>
1

>  <SCORE.INTER.POLAR>
0

>  <SCORE.INTER.ROT>
0

>  <SCORE.INTER.SOLV>
15.645

>  <SCORE.INTER.VDW>
-18.8409

>  <SCORE.INTER.norm>
-1.25323

>  <SCORE.INTRA>
0

>  <SCORE.INTRA.DIHEDRAL>
0

>  <SCORE.INTRA.DIHEDRAL.0>
0

>  <SCORE.INTRA.POLAR>
0

>  <SCORE.INTRA.POLAR.0>
0

>  <SCORE.INTRA.REPUL>
0

>  <SCORE.INTRA.REPUL.0>
0

>  <SCORE.INTRA.SOLV>
0

>  <SCORE.INTRA.SOLV.lig_0>
-48.1583

>  <SCORE.INTRA.VDW>
0

>  <SCORE.INTRA.VDW.0>
0

>  <SCORE.INTRA.norm>
0

>  <SCORE.RESTR>
0

>  <SCORE.RESTR.CAVITY>
0

>  <SCORE.RESTR.norm>
0

>  <SCORE.SYSTEM>
0

>  <SCORE.SYSTEM.CONST>
0

>  <SCORE.SYSTEM.DIHEDRAL>
0

>  <SCORE.SYSTEM.SOLV>
0

>  <SCORE.SYSTEM.norm>
0

>  <SCORE.heavy>
12

>  <SCORE.norm>
-1.25323

>  <RMSD>
3.047

$$$$
ligand
 OpenBabel11021811503D
libRbt.so/2013.1/901 2013/11/27
 12 13  0  0  0  0  0  0  0  0999 V2000
    4.6764   15.4763    3.9585 C   0  0  0  0  0  0  0  0  0  0  0  0
    6.0380   17.0771    2.9493 C   0  0  0  0  0  0  0  0  0  0  0  0
    3.9909   14.3404    3.8647 N   0  0  0  0  0  0  0  0  0  0  0  0
    6.6822   17.5888    1.8947 N   0  0  0  0  0  0  0  0  0  0  0  0
    5.3212   15.9482    2.8691 N   0  0  0  0  0  0  0  0  0  0  0  0
    4.7396   16.1236    5.1432 N   0  0  0  0  0  0  0  0  0  0  0  0
    6.8955   19.6391    5.4729 N   0  0  0  0  0  0  0  0  0  0  0  0
    6.2172   19.1156    6.5844 C   0  0  0  0  0  0  0  0  0  0  0  0
    5.4747   17.9182    6.4602 N   0  0  0  0  0  0  0  0  0  0  0  0
    5.4432   17.2761    5.2725 C   0  0  0  0  0  0  0  0  0  0  0  0
    6.1231   17.7785    4.1583 C   0  0  0  0  0  0  0  0  0  0  0  0
    6.8560   18.9612    4.2384 C   0  0  0  0  0  0  0  0  0  0  0  0
  1  3  1  0  0  0  0
  1  5  1  0  0  0  0
  1  6  2  0  0  0  0
  2  5  2  0  0  0  0
  2 11  1  0  0  0  0
  2  4  1  0  0  0  0
  6 10  1  0  0  0  0
  7  8  2  0  0  0  0
  7 12  1  0  0  0  0
  8  9  1  0  0  0  0
  9 10  2  0  0  0  0
 10 11  1  0  0  0  0
 11 12  2  0  0  0  0
M  END
>  <CHROM.1>
5.69045380,17.24387037,4.39620980,2.26490312,-0.94967357,-2.01968071

>  <Name>
ligand

>  <RI>
0

>  <Rbt.Current_Directory>
/home/itssahil/PROJECTS/Mol_Feturizer/New_Systems/rnas/4LX5

>  <Rbt.Executable>
rbdock ($Id: //depot/dev/client3/rdock/2013.1/src/exe/rbdock.cxx#4 $)

>  <Rbt.Library>
libRbt.so (2013.1, Build901 2013/11/27)

>  <Rbt.Parameter_File>
/export/apps/rDock/src/rDock_2013.1_src/data/scripts/dock_solv.prm

>  <Rbt.Receptor>
prm/pocket_docking_8.prm

>  <SCORE>
-15.0841

>  <SCORE.INTER>
-15.0841

>  <SCORE.INTER.CONST>
1

>  <SCORE.INTER.POLAR>
0

>  <SCORE.INTER.ROT>
0

>  <SCORE.INTER.SOLV>
15.5258

>  <SCORE.INTER.VDW>
-18.8313

>  <SCORE.INTER.norm>
-1.25701

>  <SCORE.INTRA>
0

>  <SCORE.INTRA.DIHEDRAL>
0

>  <SCORE.INTRA.DIHEDRAL.0>
0

>  <SCORE.INTRA.POLAR>
0

>  <SCORE.INTRA.POLAR.0>
0

>  <SCORE.INTRA.REPUL>
0

>  <SCORE.INTRA.REPUL.0>
0

>  <SCORE.INTRA.SOLV>
0

>  <SCORE.INTRA.SOLV.lig_0>
-48.1583

>  <SCORE.INTRA.VDW>
0

>  <SCORE.INTRA.VDW.0>
0

>  <SCORE.INTRA.norm>
0

>  <SCORE.RESTR>
0

>  <SCORE.RESTR.CAVITY>
0

>  <SCORE.RESTR.norm>
0

>  <SCORE.SYSTEM>
0

>  <SCORE.SYSTEM.CONST>
0

>  <SCORE.SYSTEM.DIHEDRAL>
0

>  <SCORE.SYSTEM.SOLV>
0

>  <SCORE.SYSTEM.norm>
0

>  <SCORE.heavy>
12

>  <SCORE.norm>
-1.25701

>  <RMSD>
3.047

$$$$
ligand
 OpenBabel11021811503D
libRbt.so/2013.1/901 2013/11/27
 12 13  0  0  0  0  0  0  0  0999 V2000
    4.6868   15.3958    3.9513 C   0  0  0  0  0  0  0  0  0  0  0  0
    6.0103   17.0238    2.9348 C   0  0  0  0  0  0  0  0  0  0  0  0
    4.0219   14.2475    3.8605 N   0  0  0  0  0  0  0  0  0  0  0  0
    6.6365   17.5495    1.8763 N   0  0  0  0  0  0  0  0  0  0  0  0
    5.3141   15.8818    2.8579 N   0  0  0  0  0  0  0  0  0  0  0  0
    4.7473   16.0419    5.1369 N   0  0  0  0  0  0  0  0  0  0  0  0
    6.8396   19.5964    5.4570 N   0  0  0  0  0  0  0  0  0  0  0  0
    6.1800   19.0582    6.5727 C   0  0  0  0  0  0  0  0  0  0  0  0
    5.4591   17.8473    6.4518 N   0  0  0  0  0  0  0  0  0  0  0  0
    5.4302   17.2070    5.2630 C   0  0  0  0  0  0  0  0  0  0  0  0
    6.0918   17.7242    4.1446 C   0  0  0  0  0  0  0  0  0  0  0  0
    6.8031   18.9203    4.2214 C   0  0  0  0  0  0  0  0  0  0  0  0
  1  3  1  0  0  0  0
  1  5  1  0  0  0  0
  1  6  2  0  0  0  0
  2  5  2  0  0  0  0
  2 11  1  0  0  0  0
  2  4  1  0  0  0  0
  6 10  1  0  0  0  0
  7  8  2  0  0  0  0
  7 12  1  0  0  0  0
  8  9  1  0  0  0  0
  9 10  2  0  0  0  0
 10 11  1  0  0  0  0
 11 12  2  0  0  0  0
M  END
>  <CHROM.1>
5.67109100,17.18117923,4.38476528,2.26310367,-0.96990686,-2.01912235

>  <Name>
ligand

>  <RI>
0

>  <Rbt.Current_Directory>
/home/itssahil/PROJECTS/Mol_Feturizer/New_Systems/rnas/4LX5

>  <Rbt.Executable>
rbdock ($Id: //depot/dev/client3/rdock/2013.1/src/exe/rbdock.cxx#4 $)

>  <Rbt.Library>
libRbt.so (2013.1, Build901 2013/11/27)

>  <Rbt.Parameter_File>
/export/apps/rDock/src/rDock_2013.1_src/data/scripts/dock_solv.prm

>  <Rbt.Receptor>
prm/pocket_docking_8.prm

>  <SCORE>
-15.0388

>  <SCORE.INTER>
-15.0388

>  <SCORE.INTER.CONST>
1

>  <SCORE.INTER.POLAR>
0

>  <SCORE.INTER.ROT>
0

>  <SCORE.INTER.SOLV>
15.6507

>  <SCORE.INTER.VDW>
-18.8428

>  <SCORE.INTER.norm>
-1.25323

>  <SCORE.INTRA>
0

>  <SCORE.INTRA.DIHEDRAL>
0

>  <SCORE.INTRA.DIHEDRAL.0>
0

>  <SCORE.INTRA.POLAR>
0

>  <SCORE.INTRA.POLAR.0>
0

>  <SCORE.INTRA.REPUL>
0

>  <SCORE.INTRA.REPUL.0>
0

>  <SCORE.INTRA.SOLV>
0

>  <SCORE.INTRA.SOLV.lig_0>
-48.1583

>  <SCORE.INTRA.VDW>
0

>  <SCORE.INTRA.VDW.0>
0

>  <SCORE.INTRA.norm>
0

>  <SCORE.RESTR>
0

>  <SCORE.RESTR.CAVITY>
0

>  <SCORE.RESTR.norm>
0

>  <SCORE.SYSTEM>
0

>  <SCORE.SYSTEM.CONST>
0

>  <SCORE.SYSTEM.DIHEDRAL>
0

>  <SCORE.SYSTEM.SOLV>
0

>  <SCORE.SYSTEM.norm>
0

>  <SCORE.heavy>
12

>  <SCORE.norm>
-1.25323

>  <RMSD>
3.047

$$$$
ligand
 OpenBabel11021811503D
libRbt.so/2013.1/901 2013/11/27
 12 13  0  0  0  0  0  0  0  0999 V2000
    4.6746   15.4793    3.9560 C   0  0  0  0  0  0  0  0  0  0  0  0
    6.0422   17.0790    2.9534 C   0  0  0  0  0  0  0  0  0  0  0  0
    3.9880   14.3444    3.8588 N   0  0  0  0  0  0  0  0  0  0  0  0
    6.6913   17.5906    1.9018 N   0  0  0  0  0  0  0  0  0  0  0  0
    5.3244   15.9510    2.8696 N   0  0  0  0  0  0  0  0  0  0  0  0
    4.7339   16.1257    5.1415 N   0  0  0  0  0  0  0  0  0  0  0  0
    6.8929   19.6382    5.4821 N   0  0  0  0  0  0  0  0  0  0  0  0
    6.2095   19.1149    6.5906 C   0  0  0  0  0  0  0  0  0  0  0  0
    5.4660   17.9185    6.4626 N   0  0  0  0  0  0  0  0  0  0  0  0
    5.4384   17.2772    5.2744 C   0  0  0  0  0  0  0  0  0  0  0  0
    6.1234   17.7795    4.1632 C   0  0  0  0  0  0  0  0  0  0  0  0
    6.8574   18.9612    4.2470 C   0  0  0  0  0  0  0  0  0  0  0  0
  1  3  1  0  0  0  0
  1  5  1  0  0  0  0
  1  6  2  0  0  0  0
  2  5  2  0  0  0  0
  2 11  1  0  0  0  0
  2  4  1  0  0  0  0
  6 10  1  0  0  0  0
  7  8  2  0  0  0  0
  7 12  1  0  0  0  0
  8  9  1  0  0  0  0
  9 10  2  0  0  0  0
 10 11  1  0  0  0  0
 11 12  2  0  0  0  0
M  END
>  <CHROM.1>
5.68910773,17.24528451,4.39902916,2.25966068,-0.94678720,-2.02327442

>  <Name>
ligand

>  <RI>
0

>  <Rbt.Current_Directory>
/home/itssahil/PROJECTS/Mol_Feturizer/New_Systems/rnas/4LX5

>  <Rbt.Executable>
rbdock ($Id: //depot/dev/client3/rdock/2013.1/src/exe/rbdock.cxx#4 $)

>  <Rbt.Library>
libRbt.so (2013.1, Build901 2013/11/27)

>  <Rbt.Parameter_File>
/export/apps/rDock/src/rDock_2013.1_src/data/scripts/dock_solv.prm

>  <Rbt.Receptor>
prm/pocket_docking_8.prm

>  <SCORE>
-15.0801

>  <SCORE.INTER>
-15.0801

>  <SCORE.INTER.CONST>
1

>  <SCORE.INTER.POLAR>
0

>  <SCORE.INTER.ROT>
0

>  <SCORE.INTER.SOLV>
15.5111

>  <SCORE.INTER.VDW>
-18.8238

>  <SCORE.INTER.norm>
-1.25668

>  <SCORE.INTRA>
0

>  <SCORE.INTRA.DIHEDRAL>
0

>  <SCORE.INTRA.DIHEDRAL.0>
0

>  <SCORE.INTRA.POLAR>
0

>  <SCORE.INTRA.POLAR.0>
0

>  <SCORE.INTRA.REPUL>
0

>  <SCORE.INTRA.REPUL.0>
0

>  <SCORE.INTRA.SOLV>
0

>  <SCORE.INTRA.SOLV.lig_0>
-48.1583

>  <SCORE.INTRA.VDW>
0

>  <SCORE.INTRA.VDW.0>
0

>  <SCORE.INTRA.norm>
0

>  <SCORE.RESTR>
0

>  <SCORE.RESTR.CAVITY>
0

>  <SCORE.RESTR.norm>
0

>  <SCORE.SYSTEM>
0

>  <SCORE.SYSTEM.CONST>
0

>  <SCORE.SYSTEM.DIHEDRAL>
0

>  <SCORE.SYSTEM.SOLV>
0

>  <SCORE.SYSTEM.norm>
0

>  <SCORE.heavy>
12

>  <SCORE.norm>
-1.25668

>  <RMSD>
3.047

$$$$
ligand
 OpenBabel11021811503D
libRbt.so/2013.1/901 2013/11/27
 12 13  0  0  0  0  0  0  0  0999 V2000
    4.6902   15.4771    3.9604 C   0  0  0  0  0  0  0  0  0  0  0  0
    6.0567   17.0829    2.9658 C   0  0  0  0  0  0  0  0  0  0  0  0
    4.0079   14.3401    3.8586 N   0  0  0  0  0  0  0  0  0  0  0  0
    6.7085   17.5981    1.9176 N   0  0  0  0  0  0  0  0  0  0  0  0
    5.3430   15.9526    2.8773 N   0  0  0  0  0  0  0  0  0  0  0  0
    4.7424   16.1221    5.1470 N   0  0  0  0  0  0  0  0  0  0  0  0
    6.8881   19.6413    5.5017 N   0  0  0  0  0  0  0  0  0  0  0  0
    6.2018   19.1141    6.6065 C   0  0  0  0  0  0  0  0  0  0  0  0
    5.4629   17.9153    6.4737 N   0  0  0  0  0  0  0  0  0  0  0  0
    5.4425   17.2757    5.2844 C   0  0  0  0  0  0  0  0  0  0  0  0
    6.1305   17.7819    4.1769 C   0  0  0  0  0  0  0  0  0  0  0  0
    6.8602   18.9659    4.2655 C   0  0  0  0  0  0  0  0  0  0  0  0
  1  3  1  0  0  0  0
  1  5  1  0  0  0  0
  1  6  2  0  0  0  0
  2  5  2  0  0  0  0
  2 11  1  0  0  0  0
  2  4  1  0  0  0  0
  6 10  1  0  0  0  0
  7  8  2  0  0  0  0
  7 12  1  0  0  0  0
  8  9  1  0  0  0  0
  9 10  2  0  0  0  0
 10 11  1  0  0  0  0
 11 12  2  0  0  0  0
M  END
>  <CHROM.1>
5.69698926,17.24586133,4.41013895,2.25064775,-0.94793425,-2.02916369

>  <Name>
ligand

>  <RI>
0

>  <Rbt.Current_Directory>
/home/itssahil/PROJECTS/Mol_Feturizer/New_Systems/rnas/4LX5

>  <Rbt.Executable>
rbdock ($Id: //depot/dev/client3/rdock/2013.1/src/exe/rbdock.cxx#4 $)

>  <Rbt.Library>
libRbt.so (2013.1, Build901 2013/11/27)

>  <Rbt.Parameter_File>
/export/apps/rDock/src/rDock_2013.1_src/data/scripts/dock_solv.prm

>  <Rbt.Receptor>
prm/blind_docking_100.prm

>  <SCORE>
-15.0684

>  <SCORE.INTER>
-15.0684

>  <SCORE.INTER.CONST>
1

>  <SCORE.INTER.POLAR>
0

>  <SCORE.INTER.ROT>
0

>  <SCORE.INTER.SOLV>
15.616

>  <SCORE.INTER.VDW>
-18.851

>  <SCORE.INTER.norm>
-1.2557

>  <SCORE.INTRA>
0

>  <SCORE.INTRA.DIHEDRAL>
0

>  <SCORE.INTRA.DIHEDRAL.0>
0

>  <SCORE.INTRA.POLAR>
0

>  <SCORE.INTRA.POLAR.0>
0

>  <SCORE.INTRA.REPUL>
0

>  <SCORE.INTRA.REPUL.0>
0

>  <SCORE.INTRA.SOLV>
0

>  <SCORE.INTRA.SOLV.lig_0>
-48.1583

>  <SCORE.INTRA.VDW>
0

>  <SCORE.INTRA.VDW.0>
0

>  <SCORE.INTRA.norm>
0

>  <SCORE.RESTR>
0

>  <SCORE.RESTR.CAVITY>
0

>  <SCORE.RESTR.norm>
0

>  <SCORE.SYSTEM>
0

>  <SCORE.SYSTEM.CONST>
0

>  <SCORE.SYSTEM.DIHEDRAL>
0

>  <SCORE.SYSTEM.SOLV>
0

>  <SCORE.SYSTEM.norm>
0

>  <SCORE.heavy>
12

>  <SCORE.norm>
-1.2557

>  <RMSD>
3.048

$$$$
ligand
 OpenBabel11021811503D
libRbt.so/2013.1/901 2013/11/27
 12 13  0  0  0  0  0  0  0  0999 V2000
    4.6814   15.4023    3.9542 C   0  0  0  0  0  0  0  0  0  0  0  0
    6.0108   17.0247    2.9367 C   0  0  0  0  0  0  0  0  0  0  0  0
    4.0130   14.2560    3.8645 N   0  0  0  0  0  0  0  0  0  0  0  0
    6.6396   17.5470    1.8779 N   0  0  0  0  0  0  0  0  0  0  0  0
    5.3112   15.8848    2.8607 N   0  0  0  0  0  0  0  0  0  0  0  0
    4.7430   16.0497    5.1390 N   0  0  0  0  0  0  0  0  0  0  0  0
    6.8463   19.5980    5.4560 N   0  0  0  0  0  0  0  0  0  0  0  0
    6.1841   19.0634    6.5719 C   0  0  0  0  0  0  0  0  0  0  0  0
    5.4595   17.8547    6.4521 N   0  0  0  0  0  0  0  0  0  0  0  0
    5.4295   17.2129    5.2642 C   0  0  0  0  0  0  0  0  0  0  0  0
    6.0936   17.7265    4.1456 C   0  0  0  0  0  0  0  0  0  0  0  0
    6.8086   18.9204    4.2213 C   0  0  0  0  0  0  0  0  0  0  0  0
  1  3  1  0  0  0  0
  1  5  1  0  0  0  0
  1  6  2  0  0  0  0
  2  5  2  0  0  0  0
  2 11  1  0  0  0  0
  2  4  1  0  0  0  0
  6 10  1  0  0  0  0
  7  8  2  0  0  0  0
  7 12  1  0  0  0  0
  8  9  1  0  0  0  0
  9 10  2  0  0  0  0
 10 11  1  0  0  0  0
 11 12  2  0  0  0  0
M  END
>  <CHROM.1>
5.67101916,17.18509933,4.38611043,2.26425284,-0.96672325,-2.01953014

>  <Name>
ligand

>  <RI>
0

>  <Rbt.Current_Directory>
/home/itssahil/PROJECTS/Mol_Feturizer/New_Systems/rnas/4LX5

>  <Rbt.Executable>
rbdock ($Id: //depot/dev/client3/rdock/2013.1/src/exe/rbdock.cxx#4 $)

>  <Rbt.Library>
libRbt.so (2013.1, Build901 2013/11/27)

>  <Rbt.Parameter_File>
/export/apps/rDock/src/rDock_2013.1_src/data/scripts/dock_solv.prm

>  <Rbt.Receptor>
prm/blind_docking_60.prm

>  <SCORE>
-15.0345

>  <SCORE.INTER>
-15.0345

>  <SCORE.INTER.CONST>
1

>  <SCORE.INTER.POLAR>
0

>  <SCORE.INTER.ROT>
0

>  <SCORE.INTER.SOLV>
15.6113

>  <SCORE.INTER.VDW>
-18.8267

>  <SCORE.INTER.norm>
-1.25287

>  <SCORE.INTRA>
0

>  <SCORE.INTRA.DIHEDRAL>
0

>  <SCORE.INTRA.DIHEDRAL.0>
0

>  <SCORE.INTRA.POLAR>
0

>  <SCORE.INTRA.POLAR.0>
0

>  <SCORE.INTRA.REPUL>
0

>  <SCORE.INTRA.REPUL.0>
0

>  <SCORE.INTRA.SOLV>
0

>  <SCORE.INTRA.SOLV.lig_0>
-48.1583

>  <SCORE.INTRA.VDW>
0

>  <SCORE.INTRA.VDW.0>
0

>  <SCORE.INTRA.norm>
0

>  <SCORE.RESTR>
0

>  <SCORE.RESTR.CAVITY>
0

>  <SCORE.RESTR.norm>
0

>  <SCORE.SYSTEM>
0

>  <SCORE.SYSTEM.CONST>
0

>  <SCORE.SYSTEM.DIHEDRAL>
0

>  <SCORE.SYSTEM.SOLV>
0

>  <SCORE.SYSTEM.norm>
0

>  <SCORE.heavy>
12

>  <SCORE.norm>
-1.25287

>  <RMSD>
3.048

$$$$
ligand
 OpenBabel11021811503D
libRbt.so/2013.1/901 2013/11/27
 12 13  0  0  0  0  0  0  0  0999 V2000
    4.6831   15.3971    3.9549 C   0  0  0  0  0  0  0  0  0  0  0  0
    6.0091   17.0209    2.9352 C   0  0  0  0  0  0  0  0  0  0  0  0
    4.0152   14.2504    3.8660 N   0  0  0  0  0  0  0  0  0  0  0  0
    6.6351   17.5443    1.8753 N   0  0  0  0  0  0  0  0  0  0  0  0
    5.3100   15.8807    2.8602 N   0  0  0  0  0  0  0  0  0  0  0  0
    4.7470   16.0439    5.1399 N   0  0  0  0  0  0  0  0  0  0  0  0
    6.8489   19.5933    5.4542 N   0  0  0  0  0  0  0  0  0  0  0  0
    6.1897   19.0576    6.5713 C   0  0  0  0  0  0  0  0  0  0  0  0
    5.4654   17.8484    6.4524 N   0  0  0  0  0  0  0  0  0  0  0  0
    5.4331   17.2074    5.2642 C   0  0  0  0  0  0  0  0  0  0  0  0
    6.0943   17.7221    4.1443 C   0  0  0  0  0  0  0  0  0  0  0  0
    6.8087   18.9164    4.2192 C   0  0  0  0  0  0  0  0  0  0  0  0
  1  3  1  0  0  0  0
  1  5  1  0  0  0  0
  1  6  2  0  0  0  0
  2  5  2  0  0  0  0
  2 11  1  0  0  0  0
  2  4  1  0  0  0  0
  6 10  1  0  0  0  0
  7  8  2  0  0  0  0
  7 12  1  0  0  0  0
  8  9  1  0  0  0  0
  9 10  2  0  0  0  0
 10 11  1  0  0  0  0
 11 12  2  0  0  0  0
M  END
>  <CHROM.1>
5.67259147,17.18028171,4.38554690,2.26749672,-0.96829069,-2.01624233

>  <Name>
ligand

>  <RI>
0

>  <Rbt.Current_Directory>
/home/itssahil/PROJECTS/Mol_Feturizer/New_Systems/rnas/4LX5

>  <Rbt.Executable>
rbdock ($Id: //depot/dev/client3/rdock/2013.1/src/exe/rbdock.cxx#4 $)

>  <Rbt.Library>
libRbt.so (2013.1, Build901 2013/11/27)

>  <Rbt.Parameter_File>
/export/apps/rDock/src/rDock_2013.1_src/data/scripts/dock_solv.prm

>  <Rbt.Receptor>
prm/blind_docking_80.prm

>  <SCORE>
-15.0387

>  <SCORE.INTER>
-15.0387

>  <SCORE.INTER.CONST>
1

>  <SCORE.INTER.POLAR>
0

>  <SCORE.INTER.ROT>
0

>  <SCORE.INTER.SOLV>
15.6184

>  <SCORE.INTER.VDW>
-18.8319

>  <SCORE.INTER.norm>
-1.25322

>  <SCORE.INTRA>
0

>  <SCORE.INTRA.DIHEDRAL>
0

>  <SCORE.INTRA.DIHEDRAL.0>
0

>  <SCORE.INTRA.POLAR>
0

>  <SCORE.INTRA.POLAR.0>
0

>  <SCORE.INTRA.REPUL>
0

>  <SCORE.INTRA.REPUL.0>
0

>  <SCORE.INTRA.SOLV>
0

>  <SCORE.INTRA.SOLV.lig_0>
-48.1583

>  <SCORE.INTRA.VDW>
0

>  <SCORE.INTRA.VDW.0>
0

>  <SCORE.INTRA.norm>
0

>  <SCORE.RESTR>
0

>  <SCORE.RESTR.CAVITY>
0

>  <SCORE.RESTR.norm>
0

>  <SCORE.SYSTEM>
0

>  <SCORE.SYSTEM.CONST>
0

>  <SCORE.SYSTEM.DIHEDRAL>
0

>  <SCORE.SYSTEM.SOLV>
0

>  <SCORE.SYSTEM.norm>
0

>  <SCORE.heavy>
12

>  <SCORE.norm>
-1.25322

>  <RMSD>
3.048

$$$$
ligand
 OpenBabel11021811503D
libRbt.so/2013.1/901 2013/11/27
 12 13  0  0  0  0  0  0  0  0999 V2000
    4.6722   15.4087    3.9481 C   0  0  0  0  0  0  0  0  0  0  0  0
    6.0168   17.0230    2.9376 C   0  0  0  0  0  0  0  0  0  0  0  0
    3.9996   14.2651    3.8556 N   0  0  0  0  0  0  0  0  0  0  0  0
    6.6563   17.5401    1.8828 N   0  0  0  0  0  0  0  0  0  0  0  0
    5.3128   15.8859    2.8586 N   0  0  0  0  0  0  0  0  0  0  0  0
    4.7270   16.0587    5.1319 N   0  0  0  0  0  0  0  0  0  0  0  0
    6.8430   19.5986    5.4577 N   0  0  0  0  0  0  0  0  0  0  0  0
    6.1695   19.0695    6.5695 C   0  0  0  0  0  0  0  0  0  0  0  0
    5.4406   17.8636    6.4465 N   0  0  0  0  0  0  0  0  0  0  0  0
    5.4175   17.2191    5.2599 C   0  0  0  0  0  0  0  0  0  0  0  0
    6.0928   17.7273    4.1455 C   0  0  0  0  0  0  0  0  0  0  0  0
    6.8123   18.9182    4.2243 C   0  0  0  0  0  0  0  0  0  0  0  0
  1  3  1  0  0  0  0
  1  5  1  0  0  0  0
  1  6  2  0  0  0  0
  2  5  2  0  0  0  0
  2 11  1  0  0  0  0
  2  4  1  0  0  0  0
  6 10  1  0  0  0  0
  7  8  2  0  0  0  0
  7 12  1  0  0  0  0
  8  9  1  0  0  0  0
  9 10  2  0  0  0  0
 10 11  1  0  0  0  0
 11 12  2  0  0  0  0
M  END
>  <CHROM.1>
5.66596780,17.18825027,4.38389786,2.25484201,-0.95929829,-2.02957931

>  <Name>
ligand

>  <RI>
0

>  <Rbt.Current_Directory>
/home/itssahil/PROJECTS/Mol_Feturizer/New_Systems/rnas/4LX5

>  <Rbt.Executable>
rbdock ($Id: //depot/dev/client3/rdock/2013.1/src/exe/rbdock.cxx#4 $)

>  <Rbt.Library>
libRbt.so (2013.1, Build901 2013/11/27)

>  <Rbt.Parameter_File>
/export/apps/rDock/src/rDock_2013.1_src/data/scripts/dock_solv.prm

>  <Rbt.Receptor>
prm/blind_docking_80.prm

>  <SCORE>
-15.0232

>  <SCORE.INTER>
-15.0232

>  <SCORE.INTER.CONST>
1

>  <SCORE.INTER.POLAR>
0

>  <SCORE.INTER.ROT>
0

>  <SCORE.INTER.SOLV>
15.5592

>  <SCORE.INTER.VDW>
-18.8018

>  <SCORE.INTER.norm>
-1.25193

>  <SCORE.INTRA>
0

>  <SCORE.INTRA.DIHEDRAL>
0

>  <SCORE.INTRA.DIHEDRAL.0>
0

>  <SCORE.INTRA.POLAR>
0

>  <SCORE.INTRA.POLAR.0>
0

>  <SCORE.INTRA.REPUL>
0

>  <SCORE.INTRA.REPUL.0>
0

>  <SCORE.INTRA.SOLV>
0

>  <SCORE.INTRA.SOLV.lig_0>
-48.1583

>  <SCORE.INTRA.VDW>
0

>  <SCORE.INTRA.VDW.0>
0

>  <SCORE.INTRA.norm>
0

>  <SCORE.RESTR>
0

>  <SCORE.RESTR.CAVITY>
0

>  <SCORE.RESTR.norm>
0

>  <SCORE.SYSTEM>
0

>  <SCORE.SYSTEM.CONST>
0

>  <SCORE.SYSTEM.DIHEDRAL>
0

>  <SCORE.SYSTEM.SOLV>
0

>  <SCORE.SYSTEM.norm>
0

>  <SCORE.heavy>
12

>  <SCORE.norm>
-1.25193

>  <RMSD>
3.048

$$$$
ligand
 OpenBabel11021811503D
libRbt.so/2013.1/901 2013/11/27
 12 13  0  0  0  0  0  0  0  0999 V2000
    4.6762   15.4706    3.9528 C   0  0  0  0  0  0  0  0  0  0  0  0
    6.0398   17.0800    2.9600 C   0  0  0  0  0  0  0  0  0  0  0  0
    3.9917   14.3351    3.8483 N   0  0  0  0  0  0  0  0  0  0  0  0
    6.6868   17.6002    1.9114 N   0  0  0  0  0  0  0  0  0  0  0  0
    5.3240   15.9512    2.8690 N   0  0  0  0  0  0  0  0  0  0  0  0
    4.7354   16.1089    5.1427 N   0  0  0  0  0  0  0  0  0  0  0  0
    6.8880   19.6231    5.5058 N   0  0  0  0  0  0  0  0  0  0  0  0
    6.2067   19.0907    6.6112 C   0  0  0  0  0  0  0  0  0  0  0  0
    5.4654   17.8937    6.4756 N   0  0  0  0  0  0  0  0  0  0  0  0
    5.4379   17.2608    5.2829 C   0  0  0  0  0  0  0  0  0  0  0  0
    6.1208   17.7721    4.1747 C   0  0  0  0  0  0  0  0  0  0  0  0
    6.8526   18.9547    4.2660 C   0  0  0  0  0  0  0  0  0  0  0  0
  1  3  1  0  0  0  0
  1  5  1  0  0  0  0
  1  6  2  0  0  0  0
  2  5  2  0  0  0  0
  2 11  1  0  0  0  0
  2  4  1  0  0  0  0
  6 10  1  0  0  0  0
  7  8  2  0  0  0  0
  7 12  1  0  0  0  0
  8  9  1  0  0  0  0
  9 10  2  0  0  0  0
 10 11  1  0  0  0  0
 11 12  2  0  0  0  0
M  END
>  <CHROM.1>
5.68776568,17.23544112,4.40714318,2.25972532,-0.94894906,-2.01621903

>  <Name>
ligand

>  <RI>
0

>  <Rbt.Current_Directory>
/home/itssahil/PROJECTS/Mol_Feturizer/New_Systems/rnas/4LX5

>  <Rbt.Executable>
rbdock ($Id: //depot/dev/client3/rdock/2013.1/src/exe/rbdock.cxx#4 $)

>  <Rbt.Library>
libRbt.so (2013.1, Build901 2013/11/27)

>  <Rbt.Parameter_File>
/export/apps/rDock/src/rDock_2013.1_src/data/scripts/dock_solv.prm

>  <Rbt.Receptor>
prm/pocket_docking_3.prm

>  <SCORE>
-15.0539

>  <SCORE.INTER>
-15.0539

>  <SCORE.INTER.CONST>
1

>  <SCORE.INTER.POLAR>
0

>  <SCORE.INTER.ROT>
0

>  <SCORE.INTER.SOLV>
15.5058

>  <SCORE.INTER.VDW>
-18.8045

>  <SCORE.INTER.norm>
-1.25449

>  <SCORE.INTRA>
0

>  <SCORE.INTRA.DIHEDRAL>
0

>  <SCORE.INTRA.DIHEDRAL.0>
0

>  <SCORE.INTRA.POLAR>
0

>  <SCORE.INTRA.POLAR.0>
0

>  <SCORE.INTRA.REPUL>
0

>  <SCORE.INTRA.REPUL.0>
0

>  <SCORE.INTRA.SOLV>
0

>  <SCORE.INTRA.SOLV.lig_0>
-48.1583

>  <SCORE.INTRA.VDW>
0

>  <SCORE.INTRA.VDW.0>
0

>  <SCORE.INTRA.norm>
0

>  <SCORE.RESTR>
0

>  <SCORE.RESTR.CAVITY>
0

>  <SCORE.RESTR.norm>
0

>  <SCORE.SYSTEM>
0

>  <SCORE.SYSTEM.CONST>
0

>  <SCORE.SYSTEM.DIHEDRAL>
0

>  <SCORE.SYSTEM.SOLV>
0

>  <SCORE.SYSTEM.norm>
0

>  <SCORE.heavy>
12

>  <SCORE.norm>
-1.25449

>  <RMSD>
3.048

$$$$
ligand
 OpenBabel11021811503D
libRbt.so/2013.1/901 2013/11/27
 12 13  0  0  0  0  0  0  0  0999 V2000
    4.6932   15.4753    3.9632 C   0  0  0  0  0  0  0  0  0  0  0  0
    6.0542   17.0800    2.9594 C   0  0  0  0  0  0  0  0  0  0  0  0
    4.0095   14.3386    3.8662 N   0  0  0  0  0  0  0  0  0  0  0  0
    6.6995   17.5946    1.9069 N   0  0  0  0  0  0  0  0  0  0  0  0
    5.3393   15.9501    2.8759 N   0  0  0  0  0  0  0  0  0  0  0  0
    4.7534   16.1205    5.1493 N   0  0  0  0  0  0  0  0  0  0  0  0
    6.9034   19.6385    5.4893 N   0  0  0  0  0  0  0  0  0  0  0  0
    6.2239   19.1120    6.5986 C   0  0  0  0  0  0  0  0  0  0  0  0
    5.4834   17.9137    6.4709 N   0  0  0  0  0  0  0  0  0  0  0  0
    5.4550   17.2738    5.2819 C   0  0  0  0  0  0  0  0  0  0  0  0
    6.1361   17.7792    4.1699 C   0  0  0  0  0  0  0  0  0  0  0  0
    6.8671   18.9629    4.2534 C   0  0  0  0  0  0  0  0  0  0  0  0
  1  3  1  0  0  0  0
  1  5  1  0  0  0  0
  1  6  2  0  0  0  0
  2  5  2  0  0  0  0
  2 11  1  0  0  0  0
  2  4  1  0  0  0  0
  6 10  1  0  0  0  0
  7  8  2  0  0  0  0
  7 12  1  0  0  0  0
  8  9  1  0  0  0  0
  9 10  2  0  0  0  0
 10 11  1  0  0  0  0
 11 12  2  0  0  0  0
M  END
>  <CHROM.1>
5.70384099,17.24356399,4.40602617,2.26103282,-0.95023577,-2.02097703

>  <Name>
ligand

>  <RI>
0

>  <Rbt.Current_Directory>
/home/itssahil/PROJECTS/Mol_Feturizer/New_Systems/rnas/4LX5

>  <Rbt.Executable>
rbdock ($Id: //depot/dev/client3/rdock/2013.1/src/exe/rbdock.cxx#4 $)

>  <Rbt.Library>
libRbt.so (2013.1, Build901 2013/11/27)

>  <Rbt.Parameter_File>
/export/apps/rDock/src/rDock_2013.1_src/data/scripts/dock_solv.prm

>  <Rbt.Receptor>
prm/pocket_docking_3.prm

>  <SCORE>
-15.0735

>  <SCORE.INTER>
-15.0735

>  <SCORE.INTER.CONST>
1

>  <SCORE.INTER.POLAR>
0

>  <SCORE.INTER.ROT>
0

>  <SCORE.INTER.SOLV>
15.6259

>  <SCORE.INTER.VDW>
-18.8577

>  <SCORE.INTER.norm>
-1.25613

>  <SCORE.INTRA>
0

>  <SCORE.INTRA.DIHEDRAL>
0

>  <SCORE.INTRA.DIHEDRAL.0>
0

>  <SCORE.INTRA.POLAR>
0

>  <SCORE.INTRA.POLAR.0>
0

>  <SCORE.INTRA.REPUL>
0

>  <SCORE.INTRA.REPUL.0>
0

>  <SCORE.INTRA.SOLV>
0

>  <SCORE.INTRA.SOLV.lig_0>
-48.1583

>  <SCORE.INTRA.VDW>
0

>  <SCORE.INTRA.VDW.0>
0

>  <SCORE.INTRA.norm>
0

>  <SCORE.RESTR>
0

>  <SCORE.RESTR.CAVITY>
0

>  <SCORE.RESTR.norm>
0

>  <SCORE.SYSTEM>
0

>  <SCORE.SYSTEM.CONST>
0

>  <SCORE.SYSTEM.DIHEDRAL>
0

>  <SCORE.SYSTEM.SOLV>
0

>  <SCORE.SYSTEM.norm>
0

>  <SCORE.heavy>
12

>  <SCORE.norm>
-1.25613

>  <RMSD>
3.048

$$$$
ligand
 OpenBabel11021811503D
libRbt.so/2013.1/901 2013/11/27
 12 13  0  0  0  0  0  0  0  0999 V2000
    4.6764   15.4758    3.9605 C   0  0  0  0  0  0  0  0  0  0  0  0
    6.0364   17.0774    2.9505 C   0  0  0  0  0  0  0  0  0  0  0  0
    3.9910   14.3399    3.8671 N   0  0  0  0  0  0  0  0  0  0  0  0
    6.6791   17.5898    1.8953 N   0  0  0  0  0  0  0  0  0  0  0  0
    5.3197   15.9484    2.8706 N   0  0  0  0  0  0  0  0  0  0  0  0
    4.7412   16.1224    5.1456 N   0  0  0  0  0  0  0  0  0  0  0  0
    6.8971   19.6380    5.4744 N   0  0  0  0  0  0  0  0  0  0  0  0
    6.2204   19.1138    6.5865 C   0  0  0  0  0  0  0  0  0  0  0  0
    5.4779   17.9163    6.4626 N   0  0  0  0  0  0  0  0  0  0  0  0
    5.4448   17.2749    5.2746 C   0  0  0  0  0  0  0  0  0  0  0  0
    6.1231   17.7781    4.1598 C   0  0  0  0  0  0  0  0  0  0  0  0
    6.8559   18.9608    4.2395 C   0  0  0  0  0  0  0  0  0  0  0  0
  1  3  1  0  0  0  0
  1  5  1  0  0  0  0
  1  6  2  0  0  0  0
  2  5  2  0  0  0  0
  2 11  1  0  0  0  0
  2  4  1  0  0  0  0
  6 10  1  0  0  0  0
  7  8  2  0  0  0  0
  7 12  1  0  0  0  0
  8  9  1  0  0  0  0
  9 10  2  0  0  0  0
 10 11  1  0  0  0  0
 11 12  2  0  0  0  0
M  END
>  <CHROM.1>
5.69086005,17.24327462,4.39794644,2.26691314,-0.95038129,-2.01746117

>  <Name>
ligand

>  <RI>
0

>  <Rbt.Current_Directory>
/home/itssahil/PROJECTS/Mol_Feturizer/New_Systems/rnas/4LX5

>  <Rbt.Executable>
rbdock ($Id: //depot/dev/client3/rdock/2013.1/src/exe/rbdock.cxx#4 $)

>  <Rbt.Library>
libRbt.so (2013.1, Build901 2013/11/27)

>  <Rbt.Parameter_File>
/export/apps/rDock/src/rDock_2013.1_src/data/scripts/dock_solv.prm

>  <Rbt.Receptor>
prm/pocket_docking_3.prm

>  <SCORE>
-15.0857

>  <SCORE.INTER>
-15.0857

>  <SCORE.INTER.CONST>
1

>  <SCORE.INTER.POLAR>
0

>  <SCORE.INTER.ROT>
0

>  <SCORE.INTER.SOLV>
15.5222

>  <SCORE.INTER.VDW>
-18.8312

>  <SCORE.INTER.norm>
-1.25714

>  <SCORE.INTRA>
0

>  <SCORE.INTRA.DIHEDRAL>
0

>  <SCORE.INTRA.DIHEDRAL.0>
0

>  <SCORE.INTRA.POLAR>
0

>  <SCORE.INTRA.POLAR.0>
0

>  <SCORE.INTRA.REPUL>
0

>  <SCORE.INTRA.REPUL.0>
0

>  <SCORE.INTRA.SOLV>
0

>  <SCORE.INTRA.SOLV.lig_0>
-48.1583

>  <SCORE.INTRA.VDW>
0

>  <SCORE.INTRA.VDW.0>
0

>  <SCORE.INTRA.norm>
0

>  <SCORE.RESTR>
0

>  <SCORE.RESTR.CAVITY>
0

>  <SCORE.RESTR.norm>
0

>  <SCORE.SYSTEM>
0

>  <SCORE.SYSTEM.CONST>
0

>  <SCORE.SYSTEM.DIHEDRAL>
0

>  <SCORE.SYSTEM.SOLV>
0

>  <SCORE.SYSTEM.norm>
0

>  <SCORE.heavy>
12

>  <SCORE.norm>
-1.25714

>  <RMSD>
3.048

$$$$
ligand
 OpenBabel11021811503D
libRbt.so/2013.1/901 2013/11/27
 12 13  0  0  0  0  0  0  0  0999 V2000
    4.6869   15.4652    3.9676 C   0  0  0  0  0  0  0  0  0  0  0  0
    6.0371   17.0706    2.9504 C   0  0  0  0  0  0  0  0  0  0  0  0
    4.0060   14.3263    3.8784 N   0  0  0  0  0  0  0  0  0  0  0  0
    6.6745   17.5837    1.8923 N   0  0  0  0  0  0  0  0  0  0  0  0
    5.3249   15.9384    2.8748 N   0  0  0  0  0  0  0  0  0  0  0  0
    4.7525   16.1144    5.1512 N   0  0  0  0  0  0  0  0  0  0  0  0
    6.8944   19.6396    5.4669 N   0  0  0  0  0  0  0  0  0  0  0  0
    6.2233   19.1147    6.5820 C   0  0  0  0  0  0  0  0  0  0  0  0
    5.4855   17.9139    6.4626 N   0  0  0  0  0  0  0  0  0  0  0  0
    5.4516   17.2701    5.2759 C   0  0  0  0  0  0  0  0  0  0  0  0
    6.1244   17.7739    4.1581 C   0  0  0  0  0  0  0  0  0  0  0  0
    6.8524   18.9599    4.2334 C   0  0  0  0  0  0  0  0  0  0  0  0
  1  3  1  0  0  0  0
  1  5  1  0  0  0  0
  1  6  2  0  0  0  0
  2  5  2  0  0  0  0
  2 11  1  0  0  0  0
  2  4  1  0  0  0  0
  6 10  1  0  0  0  0
  7  8  2  0  0  0  0
  7 12  1  0  0  0  0
  8  9  1  0  0  0  0
  9 10  2  0  0  0  0
 10 11  1  0  0  0  0
 11 12  2  0  0  0  0
M  END
>  <CHROM.1>
5.69514779,17.23778301,4.39859161,2.26841303,-0.95549590,-2.01814445

>  <Name>
ligand

>  <RI>
0

>  <Rbt.Current_Directory>
/home/itssahil/PROJECTS/Mol_Feturizer/New_Systems/rnas/4LX5

>  <Rbt.Executable>
rbdock ($Id: //depot/dev/client3/rdock/2013.1/src/exe/rbdock.cxx#4 $)

>  <Rbt.Library>
libRbt.so (2013.1, Build901 2013/11/27)

>  <Rbt.Parameter_File>
/export/apps/rDock/src/rDock_2013.1_src/data/scripts/dock_solv.prm

>  <Rbt.Receptor>
prm/pocket_docking_3.prm

>  <SCORE>
-15.0453

>  <SCORE.INTER>
-15.0453

>  <SCORE.INTER.CONST>
1

>  <SCORE.INTER.POLAR>
0

>  <SCORE.INTER.ROT>
0

>  <SCORE.INTER.SOLV>
15.6072

>  <SCORE.INTER.VDW>
-18.8326

>  <SCORE.INTER.norm>
-1.25378

>  <SCORE.INTRA>
0

>  <SCORE.INTRA.DIHEDRAL>
0

>  <SCORE.INTRA.DIHEDRAL.0>
0

>  <SCORE.INTRA.POLAR>
0

>  <SCORE.INTRA.POLAR.0>
0

>  <SCORE.INTRA.REPUL>
0

>  <SCORE.INTRA.REPUL.0>
0

>  <SCORE.INTRA.SOLV>
0

>  <SCORE.INTRA.SOLV.lig_0>
-48.1583

>  <SCORE.INTRA.VDW>
0

>  <SCORE.INTRA.VDW.0>
0

>  <SCORE.INTRA.norm>
0

>  <SCORE.RESTR>
0

>  <SCORE.RESTR.CAVITY>
0

>  <SCORE.RESTR.norm>
0

>  <SCORE.SYSTEM>
0

>  <SCORE.SYSTEM.CONST>
0

>  <SCORE.SYSTEM.DIHEDRAL>
0

>  <SCORE.SYSTEM.SOLV>
0

>  <SCORE.SYSTEM.norm>
0

>  <SCORE.heavy>
12

>  <SCORE.norm>
-1.25378

>  <RMSD>
3.048

$$$$
ligand
 OpenBabel11021811503D
libRbt.so/2013.1/901 2013/11/27
 12 13  0  0  0  0  0  0  0  0999 V2000
    4.6855   15.4041    3.9575 C   0  0  0  0  0  0  0  0  0  0  0  0
    6.0128   17.0238    2.9329 C   0  0  0  0  0  0  0  0  0  0  0  0
    4.0142   14.2592    3.8713 N   0  0  0  0  0  0  0  0  0  0  0  0
    6.6369   17.5449    1.8708 N   0  0  0  0  0  0  0  0  0  0  0  0
    5.3103   15.8854    2.8606 N   0  0  0  0  0  0  0  0  0  0  0  0
    4.7547   16.0514    5.1419 N   0  0  0  0  0  0  0  0  0  0  0  0
    6.8671   19.5953    5.4478 N   0  0  0  0  0  0  0  0  0  0  0  0
    6.2098   19.0620    6.5672 C   0  0  0  0  0  0  0  0  0  0  0  0
    5.4819   17.8548    6.4512 N   0  0  0  0  0  0  0  0  0  0  0  0
    5.4443   17.2131    5.2635 C   0  0  0  0  0  0  0  0  0  0  0  0
    6.1035   17.7254    4.1413 C   0  0  0  0  0  0  0  0  0  0  0  0
    6.8213   18.9178    4.2133 C   0  0  0  0  0  0  0  0  0  0  0  0
  1  3  1  0  0  0  0
  1  5  1  0  0  0  0
  1  6  2  0  0  0  0
  2  5  2  0  0  0  0
  2 11  1  0  0  0  0
  2  4  1  0  0  0  0
  6 10  1  0  0  0  0
  7  8  2  0  0  0  0
  7 12  1  0  0  0  0
  8  9  1  0  0  0  0
  9 10  2  0  0  0  0
 10 11  1  0  0  0  0
 11 12  2  0  0  0  0
M  END
>  <CHROM.1>
5.68104294,17.18485875,4.38412891,2.27435103,-0.96715431,-2.01117360

>  <Name>
ligand

>  <RI>
0

>  <Rbt.Current_Directory>
/home/itssahil/PROJECTS/Mol_Feturizer/New_Systems/rnas/4LX5

>  <Rbt.Executable>
rbdock ($Id: //depot/dev/client3/rdock/2013.1/src/exe/rbdock.cxx#4 $)

>  <Rbt.Library>
libRbt.so (2013.1, Build901 2013/11/27)

>  <Rbt.Parameter_File>
/export/apps/rDock/src/rDock_2013.1_src/data/scripts/dock_solv.prm

>  <Rbt.Receptor>
prm/pocket_docking_5.prm

>  <SCORE>
-15.0325

>  <SCORE.INTER>
-15.0325

>  <SCORE.INTER.CONST>
1

>  <SCORE.INTER.POLAR>
0

>  <SCORE.INTER.ROT>
0

>  <SCORE.INTER.SOLV>
15.6202

>  <SCORE.INTER.VDW>
-18.8284

>  <SCORE.INTER.norm>
-1.25271

>  <SCORE.INTRA>
0

>  <SCORE.INTRA.DIHEDRAL>
0

>  <SCORE.INTRA.DIHEDRAL.0>
0

>  <SCORE.INTRA.POLAR>
0

>  <SCORE.INTRA.POLAR.0>
0

>  <SCORE.INTRA.REPUL>
0

>  <SCORE.INTRA.REPUL.0>
0

>  <SCORE.INTRA.SOLV>
0

>  <SCORE.INTRA.SOLV.lig_0>
-48.1583

>  <SCORE.INTRA.VDW>
0

>  <SCORE.INTRA.VDW.0>
0

>  <SCORE.INTRA.norm>
0

>  <SCORE.RESTR>
0

>  <SCORE.RESTR.CAVITY>
0

>  <SCORE.RESTR.norm>
0

>  <SCORE.SYSTEM>
0

>  <SCORE.SYSTEM.CONST>
0

>  <SCORE.SYSTEM.DIHEDRAL>
0

>  <SCORE.SYSTEM.SOLV>
0

>  <SCORE.SYSTEM.norm>
0

>  <SCORE.heavy>
12

>  <SCORE.norm>
-1.25271

>  <RMSD>
3.048

$$$$
ligand
 OpenBabel11021811503D
libRbt.so/2013.1/901 2013/11/27
 12 13  0  0  0  0  0  0  0  0999 V2000
    4.6770   15.4829    3.9591 C   0  0  0  0  0  0  0  0  0  0  0  0
    6.0455   17.0821    2.9567 C   0  0  0  0  0  0  0  0  0  0  0  0
    3.9887   14.3491    3.8613 N   0  0  0  0  0  0  0  0  0  0  0  0
    6.6938   17.5942    1.9049 N   0  0  0  0  0  0  0  0  0  0  0  0
    5.3259   15.9553    2.8724 N   0  0  0  0  0  0  0  0  0  0  0  0
    4.7390   16.1276    5.1454 N   0  0  0  0  0  0  0  0  0  0  0  0
    6.9036   19.6365    5.4878 N   0  0  0  0  0  0  0  0  0  0  0  0
    6.2210   19.1126    6.5965 C   0  0  0  0  0  0  0  0  0  0  0  0
    5.4756   17.9174    6.4679 N   0  0  0  0  0  0  0  0  0  0  0  0
    5.4454   17.2779    5.2788 C   0  0  0  0  0  0  0  0  0  0  0  0
    6.1295   17.7807    4.1674 C   0  0  0  0  0  0  0  0  0  0  0  0
    6.8653   18.9613    4.2518 C   0  0  0  0  0  0  0  0  0  0  0  0
  1  3  1  0  0  0  0
  1  5  1  0  0  0  0
  1  6  2  0  0  0  0
  2  5  2  0  0  0  0
  2 11  1  0  0  0  0
  2  4  1  0  0  0  0
  6 10  1  0  0  0  0
  7  8  2  0  0  0  0
  7 12  1  0  0  0  0
  8  9  1  0  0  0  0
  9 10  2  0  0  0  0
 10 11  1  0  0  0  0
 11 12  2  0  0  0  0
M  END
>  <CHROM.1>
5.69477048,17.24681891,4.40309384,2.26298091,-0.94610658,-2.01917427

>  <Name>
ligand

>  <RI>
0

>  <Rbt.Current_Directory>
/home/itssahil/PROJECTS/Mol_Feturizer/New_Systems/rnas/4LX5

>  <Rbt.Executable>
rbdock ($Id: //depot/dev/client3/rdock/2013.1/src/exe/rbdock.cxx#4 $)

>  <Rbt.Library>
libRbt.so (2013.1, Build901 2013/11/27)

>  <Rbt.Parameter_File>
/export/apps/rDock/src/rDock_2013.1_src/data/scripts/dock_solv.prm

>  <Rbt.Receptor>
prm/pocket_docking_6.prm

>  <SCORE>
-15.0772

>  <SCORE.INTER>
-15.0772

>  <SCORE.INTER.CONST>
1

>  <SCORE.INTER.POLAR>
0

>  <SCORE.INTER.ROT>
0

>  <SCORE.INTER.SOLV>
15.5111

>  <SCORE.INTER.VDW>
-18.8218

>  <SCORE.INTER.norm>
-1.25643

>  <SCORE.INTRA>
0

>  <SCORE.INTRA.DIHEDRAL>
0

>  <SCORE.INTRA.DIHEDRAL.0>
0

>  <SCORE.INTRA.POLAR>
0

>  <SCORE.INTRA.POLAR.0>
0

>  <SCORE.INTRA.REPUL>
0

>  <SCORE.INTRA.REPUL.0>
0

>  <SCORE.INTRA.SOLV>
0

>  <SCORE.INTRA.SOLV.lig_0>
-48.1583

>  <SCORE.INTRA.VDW>
0

>  <SCORE.INTRA.VDW.0>
0

>  <SCORE.INTRA.norm>
0

>  <SCORE.RESTR>
0

>  <SCORE.RESTR.CAVITY>
0

>  <SCORE.RESTR.norm>
0

>  <SCORE.SYSTEM>
0

>  <SCORE.SYSTEM.CONST>
0

>  <SCORE.SYSTEM.DIHEDRAL>
0

>  <SCORE.SYSTEM.SOLV>
0

>  <SCORE.SYSTEM.norm>
0

>  <SCORE.heavy>
12

>  <SCORE.norm>
-1.25643

>  <RMSD>
3.048

$$$$
ligand
 OpenBabel11021811503D
libRbt.so/2013.1/901 2013/11/27
 12 13  0  0  0  0  0  0  0  0999 V2000
    4.6776   15.4762    3.9607 C   0  0  0  0  0  0  0  0  0  0  0  0
    6.0381   17.0782    2.9519 C   0  0  0  0  0  0  0  0  0  0  0  0
    3.9924   14.3402    3.8665 N   0  0  0  0  0  0  0  0  0  0  0  0
    6.6815   17.5909    1.8973 N   0  0  0  0  0  0  0  0  0  0  0  0
    5.3216   15.9491    2.8712 N   0  0  0  0  0  0  0  0  0  0  0  0
    4.7415   16.1226    5.1459 N   0  0  0  0  0  0  0  0  0  0  0  0
    6.8966   19.6384    5.4769 N   0  0  0  0  0  0  0  0  0  0  0  0
    6.2192   19.1139    6.5885 C   0  0  0  0  0  0  0  0  0  0  0  0
    5.4770   17.9163    6.4638 N   0  0  0  0  0  0  0  0  0  0  0  0
    5.4448   17.2751    5.2756 C   0  0  0  0  0  0  0  0  0  0  0  0
    6.1238   17.7786    4.1614 C   0  0  0  0  0  0  0  0  0  0  0  0
    6.8564   18.9615    4.2419 C   0  0  0  0  0  0  0  0  0  0  0  0
  1  3  1  0  0  0  0
  1  5  1  0  0  0  0
  1  6  2  0  0  0  0
  2  5  2  0  0  0  0
  2 11  1  0  0  0  0
  2  4  1  0  0  0  0
  6 10  1  0  0  0  0
  7  8  2  0  0  0  0
  7 12  1  0  0  0  0
  8  9  1  0  0  0  0
  9 10  2  0  0  0  0
 10 11  1  0  0  0  0
 11 12  2  0  0  0  0
M  END
>  <CHROM.1>
5.69149894,17.24371246,4.39914113,2.26573052,-0.95021063,-2.01821312

>  <Name>
ligand

>  <RI>
0

>  <Rbt.Current_Directory>
/home/itssahil/PROJECTS/Mol_Feturizer/New_Systems/rnas/4LX5

>  <Rbt.Executable>
rbdock ($Id: //depot/dev/client3/rdock/2013.1/src/exe/rbdock.cxx#4 $)

>  <Rbt.Library>
libRbt.so (2013.1, Build901 2013/11/27)

>  <Rbt.Parameter_File>
/export/apps/rDock/src/rDock_2013.1_src/data/scripts/dock_solv.prm

>  <Rbt.Receptor>
prm/pocket_docking_7.prm

>  <SCORE>
-15.0845

>  <SCORE.INTER>
-15.0845

>  <SCORE.INTER.CONST>
1

>  <SCORE.INTER.POLAR>
0

>  <SCORE.INTER.ROT>
0

>  <SCORE.INTER.SOLV>
15.5297

>  <SCORE.INTER.VDW>
-18.8329

>  <SCORE.INTER.norm>
-1.25704

>  <SCORE.INTRA>
0

>  <SCORE.INTRA.DIHEDRAL>
0

>  <SCORE.INTRA.DIHEDRAL.0>
0

>  <SCORE.INTRA.POLAR>
0

>  <SCORE.INTRA.POLAR.0>
0

>  <SCORE.INTRA.REPUL>
0

>  <SCORE.INTRA.REPUL.0>
0

>  <SCORE.INTRA.SOLV>
0

>  <SCORE.INTRA.SOLV.lig_0>
-48.1583

>  <SCORE.INTRA.VDW>
0

>  <SCORE.INTRA.VDW.0>
0

>  <SCORE.INTRA.norm>
0

>  <SCORE.RESTR>
0

>  <SCORE.RESTR.CAVITY>
0

>  <SCORE.RESTR.norm>
0

>  <SCORE.SYSTEM>
0

>  <SCORE.SYSTEM.CONST>
0

>  <SCORE.SYSTEM.DIHEDRAL>
0

>  <SCORE.SYSTEM.SOLV>
0

>  <SCORE.SYSTEM.norm>
0

>  <SCORE.heavy>
12

>  <SCORE.norm>
-1.25704

>  <RMSD>
3.048

$$$$
ligand
 OpenBabel11021811503D
libRbt.so/2013.1/901 2013/11/27
 12 13  0  0  0  0  0  0  0  0999 V2000
    4.6855   15.4713    3.9662 C   0  0  0  0  0  0  0  0  0  0  0  0
    6.0371   17.0775    2.9522 C   0  0  0  0  0  0  0  0  0  0  0  0
    4.0007   14.3349    3.8738 N   0  0  0  0  0  0  0  0  0  0  0  0
    6.6724   17.5938    1.8945 N   0  0  0  0  0  0  0  0  0  0  0  0
    5.3212   15.9479    2.8736 N   0  0  0  0  0  0  0  0  0  0  0  0
    4.7572   16.1144    5.1528 N   0  0  0  0  0  0  0  0  0  0  0  0
    6.9111   19.6315    5.4782 N   0  0  0  0  0  0  0  0  0  0  0  0
    6.2423   19.1031    6.5932 C   0  0  0  0  0  0  0  0  0  0  0  0
    5.5003   17.9052    6.4705 N   0  0  0  0  0  0  0  0  0  0  0  0
    5.4603   17.2673    5.2807 C   0  0  0  0  0  0  0  0  0  0  0  0
    6.1308   17.7746    4.1631 C   0  0  0  0  0  0  0  0  0  0  0  0
    6.8628   18.9580    4.2416 C   0  0  0  0  0  0  0  0  0  0  0  0
  1  3  1  0  0  0  0
  1  5  1  0  0  0  0
  1  6  2  0  0  0  0
  2  5  2  0  0  0  0
  2 11  1  0  0  0  0
  2  4  1  0  0  0  0
  6 10  1  0  0  0  0
  7  8  2  0  0  0  0
  7 12  1  0  0  0  0
  8  9  1  0  0  0  0
  9 10  2  0  0  0  0
 10 11  1  0  0  0  0
 11 12  2  0  0  0  0
M  END
>  <CHROM.1>
5.70072012,17.23860193,4.40240248,2.27617031,-0.95418081,-2.00689703

>  <Name>
ligand

>  <RI>
0

>  <Rbt.Current_Directory>
/home/itssahil/PROJECTS/Mol_Feturizer/New_Systems/rnas/4LX5

>  <Rbt.Executable>
rbdock ($Id: //depot/dev/client3/rdock/2013.1/src/exe/rbdock.cxx#4 $)

>  <Rbt.Library>
libRbt.so (2013.1, Build901 2013/11/27)

>  <Rbt.Parameter_File>
/export/apps/rDock/src/rDock_2013.1_src/data/scripts/dock_solv.prm

>  <Rbt.Receptor>
prm/pocket_docking_7.prm

>  <SCORE>
-15.0419

>  <SCORE.INTER>
-15.0419

>  <SCORE.INTER.CONST>
1

>  <SCORE.INTER.POLAR>
0

>  <SCORE.INTER.ROT>
0

>  <SCORE.INTER.SOLV>
15.5668

>  <SCORE.INTER.VDW>
-18.8168

>  <SCORE.INTER.norm>
-1.25349

>  <SCORE.INTRA>
0

>  <SCORE.INTRA.DIHEDRAL>
0

>  <SCORE.INTRA.DIHEDRAL.0>
0

>  <SCORE.INTRA.POLAR>
0

>  <SCORE.INTRA.POLAR.0>
0

>  <SCORE.INTRA.REPUL>
0

>  <SCORE.INTRA.REPUL.0>
0

>  <SCORE.INTRA.SOLV>
0

>  <SCORE.INTRA.SOLV.lig_0>
-48.1583

>  <SCORE.INTRA.VDW>
0

>  <SCORE.INTRA.VDW.0>
0

>  <SCORE.INTRA.norm>
0

>  <SCORE.RESTR>
0

>  <SCORE.RESTR.CAVITY>
0

>  <SCORE.RESTR.norm>
0

>  <SCORE.SYSTEM>
0

>  <SCORE.SYSTEM.CONST>
0

>  <SCORE.SYSTEM.DIHEDRAL>
0

>  <SCORE.SYSTEM.SOLV>
0

>  <SCORE.SYSTEM.norm>
0

>  <SCORE.heavy>
12

>  <SCORE.norm>
-1.25349

>  <RMSD>
3.048

$$$$
ligand
 OpenBabel11021811503D
libRbt.so/2013.1/901 2013/11/27
 12 13  0  0  0  0  0  0  0  0999 V2000
    4.6704   15.4137    3.9522 C   0  0  0  0  0  0  0  0  0  0  0  0
    6.0154   17.0257    2.9387 C   0  0  0  0  0  0  0  0  0  0  0  0
    3.9954   14.2713    3.8612 N   0  0  0  0  0  0  0  0  0  0  0  0
    6.6532   17.5419    1.8824 N   0  0  0  0  0  0  0  0  0  0  0  0
    5.3091   15.8900    2.8612 N   0  0  0  0  0  0  0  0  0  0  0  0
    4.7294   16.0632    5.1360 N   0  0  0  0  0  0  0  0  0  0  0  0
    6.8528   19.5992    5.4574 N   0  0  0  0  0  0  0  0  0  0  0  0
    6.1811   19.0710    6.5707 C   0  0  0  0  0  0  0  0  0  0  0  0
    5.4497   17.8665    6.4493 N   0  0  0  0  0  0  0  0  0  0  0  0
    5.4224   17.2224    5.2625 C   0  0  0  0  0  0  0  0  0  0  0  0
    6.0958   17.7296    4.1466 C   0  0  0  0  0  0  0  0  0  0  0  0
    6.8177   18.9192    4.2239 C   0  0  0  0  0  0  0  0  0  0  0  0
  1  3  1  0  0  0  0
  1  5  1  0  0  0  0
  1  6  2  0  0  0  0
  2  5  2  0  0  0  0
  2 11  1  0  0  0  0
  2  4  1  0  0  0  0
  6 10  1  0  0  0  0
  7  8  2  0  0  0  0
  7 12  1  0  0  0  0
  8  9  1  0  0  0  0
  9 10  2  0  0  0  0
 10 11  1  0  0  0  0
 11 12  2  0  0  0  0
M  END
>  <CHROM.1>
5.66856326,17.19128230,4.38591354,2.26021911,-0.95875697,-2.02492239

>  <Name>
ligand

>  <RI>
0

>  <Rbt.Current_Directory>
/home/itssahil/PROJECTS/Mol_Feturizer/New_Systems/rnas/4LX5

>  <Rbt.Executable>
rbdock ($Id: //depot/dev/client3/rdock/2013.1/src/exe/rbdock.cxx#4 $)

>  <Rbt.Library>
libRbt.so (2013.1, Build901 2013/11/27)

>  <Rbt.Parameter_File>
/export/apps/rDock/src/rDock_2013.1_src/data/scripts/dock_solv.prm

>  <Rbt.Receptor>
prm/pocket_docking_7.prm

>  <SCORE>
-15.0243

>  <SCORE.INTER>
-15.0243

>  <SCORE.INTER.CONST>
1

>  <SCORE.INTER.POLAR>
0

>  <SCORE.INTER.ROT>
0

>  <SCORE.INTER.SOLV>
15.5357

>  <SCORE.INTER.VDW>
-18.7948

>  <SCORE.INTER.norm>
-1.25202

>  <SCORE.INTRA>
0

>  <SCORE.INTRA.DIHEDRAL>
0

>  <SCORE.INTRA.DIHEDRAL.0>
0

>  <SCORE.INTRA.POLAR>
0

>  <SCORE.INTRA.POLAR.0>
0

>  <SCORE.INTRA.REPUL>
0

>  <SCORE.INTRA.REPUL.0>
0

>  <SCORE.INTRA.SOLV>
0

>  <SCORE.INTRA.SOLV.lig_0>
-48.1583

>  <SCORE.INTRA.VDW>
0

>  <SCORE.INTRA.VDW.0>
0

>  <SCORE.INTRA.norm>
0

>  <SCORE.RESTR>
0

>  <SCORE.RESTR.CAVITY>
0

>  <SCORE.RESTR.norm>
0

>  <SCORE.SYSTEM>
0

>  <SCORE.SYSTEM.CONST>
0

>  <SCORE.SYSTEM.DIHEDRAL>
0

>  <SCORE.SYSTEM.SOLV>
0

>  <SCORE.SYSTEM.norm>
0

>  <SCORE.heavy>
12

>  <SCORE.norm>
-1.25202

>  <RMSD>
3.048

$$$$
ligand
 OpenBabel11021811503D
libRbt.so/2013.1/901 2013/11/27
 12 13  0  0  0  0  0  0  0  0999 V2000
    4.6820   15.4538    3.9616 C   0  0  0  0  0  0  0  0  0  0  0  0
    6.0443   17.0519    2.9491 C   0  0  0  0  0  0  0  0  0  0  0  0
    4.0015   14.3145    3.8721 N   0  0  0  0  0  0  0  0  0  0  0  0
    6.6936   17.5579    1.8949 N   0  0  0  0  0  0  0  0  0  0  0  0
    5.3324   15.9196    2.8729 N   0  0  0  0  0  0  0  0  0  0  0  0
    4.7347   16.1105    5.1416 N   0  0  0  0  0  0  0  0  0  0  0  0
    6.8748   19.6368    5.4583 N   0  0  0  0  0  0  0  0  0  0  0  0
    6.1911   19.1194    6.5693 C   0  0  0  0  0  0  0  0  0  0  0  0
    5.4540   17.9181    6.4495 N   0  0  0  0  0  0  0  0  0  0  0  0
    5.4330   17.2667    5.2666 C   0  0  0  0  0  0  0  0  0  0  0  0
    6.1185   17.7630    4.1531 C   0  0  0  0  0  0  0  0  0  0  0  0
    6.8463   18.9491    4.2289 C   0  0  0  0  0  0  0  0  0  0  0  0
  1  3  1  0  0  0  0
  1  5  1  0  0  0  0
  1  6  2  0  0  0  0
  2  5  2  0  0  0  0
  2 11  1  0  0  0  0
  2  4  1  0  0  0  0
  6 10  1  0  0  0  0
  7  8  2  0  0  0  0
  7 12  1  0  0  0  0
  8  9  1  0  0  0  0
  9 10  2  0  0  0  0
 10 11  1  0  0  0  0
 11 12  2  0  0  0  0
M  END
>  <CHROM.1>
5.68630580,17.22860821,4.39229125,2.25153766,-0.95013681,-2.03836402

>  <Name>
ligand

>  <RI>
0

>  <Rbt.Current_Directory>
/home/itssahil/PROJECTS/Mol_Feturizer/New_Systems/rnas/4LX5

>  <Rbt.Executable>
rbdock ($Id: //depot/dev/client3/rdock/2013.1/src/exe/rbdock.cxx#4 $)

>  <Rbt.Library>
libRbt.so (2013.1, Build901 2013/11/27)

>  <Rbt.Parameter_File>
/export/apps/rDock/src/rDock_2013.1_src/data/scripts/dock_solv.prm

>  <Rbt.Receptor>
prm/pocket_docking_8.prm

>  <SCORE>
-15.0358

>  <SCORE.INTER>
-15.0358

>  <SCORE.INTER.CONST>
1

>  <SCORE.INTER.POLAR>
0

>  <SCORE.INTER.ROT>
0

>  <SCORE.INTER.SOLV>
15.6131

>  <SCORE.INTER.VDW>
-18.8283

>  <SCORE.INTER.norm>
-1.25299

>  <SCORE.INTRA>
0

>  <SCORE.INTRA.DIHEDRAL>
0

>  <SCORE.INTRA.DIHEDRAL.0>
0

>  <SCORE.INTRA.POLAR>
0

>  <SCORE.INTRA.POLAR.0>
0

>  <SCORE.INTRA.REPUL>
0

>  <SCORE.INTRA.REPUL.0>
0

>  <SCORE.INTRA.SOLV>
0

>  <SCORE.INTRA.SOLV.lig_0>
-48.1583

>  <SCORE.INTRA.VDW>
0

>  <SCORE.INTRA.VDW.0>
0

>  <SCORE.INTRA.norm>
0

>  <SCORE.RESTR>
0

>  <SCORE.RESTR.CAVITY>
0

>  <SCORE.RESTR.norm>
0

>  <SCORE.SYSTEM>
0

>  <SCORE.SYSTEM.CONST>
0

>  <SCORE.SYSTEM.DIHEDRAL>
0

>  <SCORE.SYSTEM.SOLV>
0

>  <SCORE.SYSTEM.norm>
0

>  <SCORE.heavy>
12

>  <SCORE.norm>
-1.25299

>  <RMSD>
3.048

$$$$
ligand
 OpenBabel11021811503D
libRbt.so/2013.1/901 2013/11/27
 12 13  0  0  0  0  0  0  0  0999 V2000
    4.6747   15.4781    3.9635 C   0  0  0  0  0  0  0  0  0  0  0  0
    6.0365   17.0795    2.9555 C   0  0  0  0  0  0  0  0  0  0  0  0
    3.9886   14.3427    3.8687 N   0  0  0  0  0  0  0  0  0  0  0  0
    6.6803   17.5922    1.9012 N   0  0  0  0  0  0  0  0  0  0  0  0
    5.3191   15.9510    2.8743 N   0  0  0  0  0  0  0  0  0  0  0  0
    4.7389   16.1239    5.1490 N   0  0  0  0  0  0  0  0  0  0  0  0
    6.8966   19.6380    5.4817 N   0  0  0  0  0  0  0  0  0  0  0  0
    6.2187   19.1135    6.5930 C   0  0  0  0  0  0  0  0  0  0  0  0
    5.4756   17.9166    6.4677 N   0  0  0  0  0  0  0  0  0  0  0  0
    5.4431   17.2759    5.2793 C   0  0  0  0  0  0  0  0  0  0  0  0
    6.1226   17.7793    4.1653 C   0  0  0  0  0  0  0  0  0  0  0  0
    6.8561   18.9616    4.2464 C   0  0  0  0  0  0  0  0  0  0  0  0
  1  3  1  0  0  0  0
  1  5  1  0  0  0  0
  1  6  2  0  0  0  0
  2  5  2  0  0  0  0
  2 11  1  0  0  0  0
  2  4  1  0  0  0  0
  6 10  1  0  0  0  0
  7  8  2  0  0  0  0
  7 12  1  0  0  0  0
  8  9  1  0  0  0  0
  9 10  2  0  0  0  0
 10 11  1  0  0  0  0
 11 12  2  0  0  0  0
M  END
>  <CHROM.1>
5.68982581,17.24466006,4.40279286,2.26611021,-0.94947603,-2.01748545

>  <Name>
ligand

>  <RI>
0

>  <Rbt.Current_Directory>
/home/itssahil/PROJECTS/Mol_Feturizer/New_Systems/rnas/4LX5

>  <Rbt.Executable>
rbdock ($Id: //depot/dev/client3/rdock/2013.1/src/exe/rbdock.cxx#4 $)

>  <Rbt.Library>
libRbt.so (2013.1, Build901 2013/11/27)

>  <Rbt.Parameter_File>
/export/apps/rDock/src/rDock_2013.1_src/data/scripts/dock_solv.prm

>  <Rbt.Receptor>
prm/blind_docking_80.prm

>  <SCORE>
-15.0826

>  <SCORE.INTER>
-15.0826

>  <SCORE.INTER.CONST>
1

>  <SCORE.INTER.POLAR>
0

>  <SCORE.INTER.ROT>
0

>  <SCORE.INTER.SOLV>
15.506

>  <SCORE.INTER.VDW>
-18.8237

>  <SCORE.INTER.norm>
-1.25688

>  <SCORE.INTRA>
0

>  <SCORE.INTRA.DIHEDRAL>
0

>  <SCORE.INTRA.DIHEDRAL.0>
0

>  <SCORE.INTRA.POLAR>
0

>  <SCORE.INTRA.POLAR.0>
0

>  <SCORE.INTRA.REPUL>
0

>  <SCORE.INTRA.REPUL.0>
0

>  <SCORE.INTRA.SOLV>
0

>  <SCORE.INTRA.SOLV.lig_0>
-48.1583

>  <SCORE.INTRA.VDW>
0

>  <SCORE.INTRA.VDW.0>
0

>  <SCORE.INTRA.norm>
0

>  <SCORE.RESTR>
0

>  <SCORE.RESTR.CAVITY>
0

>  <SCORE.RESTR.norm>
0

>  <SCORE.SYSTEM>
0

>  <SCORE.SYSTEM.CONST>
0

>  <SCORE.SYSTEM.DIHEDRAL>
0

>  <SCORE.SYSTEM.SOLV>
0

>  <SCORE.SYSTEM.norm>
0

>  <SCORE.heavy>
12

>  <SCORE.norm>
-1.25688

>  <RMSD>
3.049

$$$$
ligand
 OpenBabel11021811503D
libRbt.so/2013.1/901 2013/11/27
 12 13  0  0  0  0  0  0  0  0999 V2000
    4.6791   15.4776    3.9641 C   0  0  0  0  0  0  0  0  0  0  0  0
    6.0376   17.0804    2.9538 C   0  0  0  0  0  0  0  0  0  0  0  0
    3.9936   14.3418    3.8704 N   0  0  0  0  0  0  0  0  0  0  0  0
    6.6789   17.5939    1.8983 N   0  0  0  0  0  0  0  0  0  0  0  0
    5.3209   15.9514    2.8737 N   0  0  0  0  0  0  0  0  0  0  0  0
    4.7455   16.1230    5.1497 N   0  0  0  0  0  0  0  0  0  0  0  0
    6.9016   19.6383    5.4793 N   0  0  0  0  0  0  0  0  0  0  0  0
    6.2265   19.1129    6.5918 C   0  0  0  0  0  0  0  0  0  0  0  0
    5.4839   17.9155    6.4677 N   0  0  0  0  0  0  0  0  0  0  0  0
    5.4492   17.2754    5.2790 C   0  0  0  0  0  0  0  0  0  0  0  0
    6.1260   17.7797    4.1638 C   0  0  0  0  0  0  0  0  0  0  0  0
    6.8588   18.9624    4.2438 C   0  0  0  0  0  0  0  0  0  0  0  0
  1  3  1  0  0  0  0
  1  5  1  0  0  0  0
  1  6  2  0  0  0  0
  2  5  2  0  0  0  0
  2 11  1  0  0  0  0
  2  4  1  0  0  0  0
  6 10  1  0  0  0  0
  7  8  2  0  0  0  0
  7 12  1  0  0  0  0
  8  9  1  0  0  0  0
  9 10  2  0  0  0  0
 10 11  1  0  0  0  0
 11 12  2  0  0  0  0
M  END
>  <CHROM.1>
5.69406834,17.24466501,4.40196488,2.26903164,-0.95101993,-2.01466749

>  <Name>
ligand

>  <RI>
0

>  <Rbt.Current_Directory>
/home/itssahil/PROJECTS/Mol_Feturizer/New_Systems/rnas/4LX5

>  <Rbt.Executable>
rbdock ($Id: //depot/dev/client3/rdock/2013.1/src/exe/rbdock.cxx#4 $)

>  <Rbt.Library>
libRbt.so (2013.1, Build901 2013/11/27)

>  <Rbt.Parameter_File>
/export/apps/rDock/src/rDock_2013.1_src/data/scripts/dock_solv.prm

>  <Rbt.Receptor>
prm/blind_docking_80.prm

>  <SCORE>
-15.082

>  <SCORE.INTER>
-15.082

>  <SCORE.INTER.CONST>
1

>  <SCORE.INTER.POLAR>
0

>  <SCORE.INTER.ROT>
0

>  <SCORE.INTER.SOLV>
15.533

>  <SCORE.INTER.VDW>
-18.8323

>  <SCORE.INTER.norm>
-1.25683

>  <SCORE.INTRA>
0

>  <SCORE.INTRA.DIHEDRAL>
0

>  <SCORE.INTRA.DIHEDRAL.0>
0

>  <SCORE.INTRA.POLAR>
0

>  <SCORE.INTRA.POLAR.0>
0

>  <SCORE.INTRA.REPUL>
0

>  <SCORE.INTRA.REPUL.0>
0

>  <SCORE.INTRA.SOLV>
0

>  <SCORE.INTRA.SOLV.lig_0>
-48.1583

>  <SCORE.INTRA.VDW>
0

>  <SCORE.INTRA.VDW.0>
0

>  <SCORE.INTRA.norm>
0

>  <SCORE.RESTR>
0

>  <SCORE.RESTR.CAVITY>
0

>  <SCORE.RESTR.norm>
0

>  <SCORE.SYSTEM>
0

>  <SCORE.SYSTEM.CONST>
0

>  <SCORE.SYSTEM.DIHEDRAL>
0

>  <SCORE.SYSTEM.SOLV>
0

>  <SCORE.SYSTEM.norm>
0

>  <SCORE.heavy>
12

>  <SCORE.norm>
-1.25683

>  <RMSD>
3.049

$$$$
ligand
 OpenBabel11021811503D
libRbt.so/2013.1/901 2013/11/27
 12 13  0  0  0  0  0  0  0  0999 V2000
    4.6665   15.4880    3.9600 C   0  0  0  0  0  0  0  0  0  0  0  0
    6.0397   17.0831    2.9574 C   0  0  0  0  0  0  0  0  0  0  0  0
    3.9749   14.3563    3.8622 N   0  0  0  0  0  0  0  0  0  0  0  0
    6.6894   17.5933    1.9055 N   0  0  0  0  0  0  0  0  0  0  0  0
    5.3167   15.9584    2.8732 N   0  0  0  0  0  0  0  0  0  0  0  0
    4.7305   16.1326    5.1462 N   0  0  0  0  0  0  0  0  0  0  0  0
    6.9055   19.6350    5.4884 N   0  0  0  0  0  0  0  0  0  0  0  0
    6.2215   19.1132    6.5972 C   0  0  0  0  0  0  0  0  0  0  0  0
    5.4725   17.9202    6.4687 N   0  0  0  0  0  0  0  0  0  0  0  0
    5.4403   17.2807    5.2796 C   0  0  0  0  0  0  0  0  0  0  0  0
    6.1258   17.7815    4.1681 C   0  0  0  0  0  0  0  0  0  0  0  0
    6.8651   18.9599    4.2524 C   0  0  0  0  0  0  0  0  0  0  0  0
  1  3  1  0  0  0  0
  1  5  1  0  0  0  0
  1  6  2  0  0  0  0
  2  5  2  0  0  0  0
  2 11  1  0  0  0  0
  2  4  1  0  0  0  0
  6 10  1  0  0  0  0
  7  8  2  0  0  0  0
  7 12  1  0  0  0  0
  8  9  1  0  0  0  0
  9 10  2  0  0  0  0
 10 11  1  0  0  0  0
 11 12  2  0  0  0  0
M  END
>  <CHROM.1>
5.68954174,17.24892039,4.40382085,2.26529693,-0.94349114,-2.01732328

>  <Name>
ligand

>  <RI>
0

>  <Rbt.Current_Directory>
/home/itssahil/PROJECTS/Mol_Feturizer/New_Systems/rnas/4LX5

>  <Rbt.Executable>
rbdock ($Id: //depot/dev/client3/rdock/2013.1/src/exe/rbdock.cxx#4 $)

>  <Rbt.Library>
libRbt.so (2013.1, Build901 2013/11/27)

>  <Rbt.Parameter_File>
/export/apps/rDock/src/rDock_2013.1_src/data/scripts/dock_solv.prm

>  <Rbt.Receptor>
prm/pocket_docking_4.prm

>  <SCORE>
-15.0756

>  <SCORE.INTER>
-15.0756

>  <SCORE.INTER.CONST>
1

>  <SCORE.INTER.POLAR>
0

>  <SCORE.INTER.ROT>
0

>  <SCORE.INTER.SOLV>
15.4347

>  <SCORE.INTER.VDW>
-18.7953

>  <SCORE.INTER.norm>
-1.2563

>  <SCORE.INTRA>
0

>  <SCORE.INTRA.DIHEDRAL>
0

>  <SCORE.INTRA.DIHEDRAL.0>
0

>  <SCORE.INTRA.POLAR>
0

>  <SCORE.INTRA.POLAR.0>
0

>  <SCORE.INTRA.REPUL>
0

>  <SCORE.INTRA.REPUL.0>
0

>  <SCORE.INTRA.SOLV>
0

>  <SCORE.INTRA.SOLV.lig_0>
-48.1583

>  <SCORE.INTRA.VDW>
0

>  <SCORE.INTRA.VDW.0>
0

>  <SCORE.INTRA.norm>
0

>  <SCORE.RESTR>
0

>  <SCORE.RESTR.CAVITY>
0

>  <SCORE.RESTR.norm>
0

>  <SCORE.SYSTEM>
0

>  <SCORE.SYSTEM.CONST>
0

>  <SCORE.SYSTEM.DIHEDRAL>
0

>  <SCORE.SYSTEM.SOLV>
0

>  <SCORE.SYSTEM.norm>
0

>  <SCORE.heavy>
12

>  <SCORE.norm>
-1.2563

>  <RMSD>
3.049

$$$$
ligand
 OpenBabel11021811503D
libRbt.so/2013.1/901 2013/11/27
 12 13  0  0  0  0  0  0  0  0999 V2000
    4.6769   15.3990    3.9532 C   0  0  0  0  0  0  0  0  0  0  0  0
    6.0103   17.0189    2.9368 C   0  0  0  0  0  0  0  0  0  0  0  0
    4.0074   14.2533    3.8632 N   0  0  0  0  0  0  0  0  0  0  0  0
    6.6418   17.5395    1.8789 N   0  0  0  0  0  0  0  0  0  0  0  0
    5.3095   15.8797    2.8605 N   0  0  0  0  0  0  0  0  0  0  0  0
    4.7367   16.0476    5.1374 N   0  0  0  0  0  0  0  0  0  0  0  0
    6.8431   19.5939    5.4554 N   0  0  0  0  0  0  0  0  0  0  0  0
    6.1780   19.0612    6.5704 C   0  0  0  0  0  0  0  0  0  0  0  0
    5.4522   17.8531    6.4502 N   0  0  0  0  0  0  0  0  0  0  0  0
    5.4241   17.2101    5.2629 C   0  0  0  0  0  0  0  0  0  0  0  0
    6.0912   17.7219    4.1452 C   0  0  0  0  0  0  0  0  0  0  0  0
    6.8073   18.9151    4.2212 C   0  0  0  0  0  0  0  0  0  0  0  0
  1  3  1  0  0  0  0
  1  5  1  0  0  0  0
  1  6  2  0  0  0  0
  2  5  2  0  0  0  0
  2 11  1  0  0  0  0
  2  4  1  0  0  0  0
  6 10  1  0  0  0  0
  7  8  2  0  0  0  0
  7 12  1  0  0  0  0
  8  9  1  0  0  0  0
  9 10  2  0  0  0  0
 10 11  1  0  0  0  0
 11 12  2  0  0  0  0
M  END
>  <CHROM.1>
5.66749928,17.18119507,4.38536174,2.26169460,-0.96481948,-2.02264104

>  <Name>
ligand

>  <RI>
0

>  <Rbt.Current_Directory>
/home/itssahil/PROJECTS/Mol_Feturizer/New_Systems/rnas/4LX5

>  <Rbt.Executable>
rbdock ($Id: //depot/dev/client3/rdock/2013.1/src/exe/rbdock.cxx#4 $)

>  <Rbt.Library>
libRbt.so (2013.1, Build901 2013/11/27)

>  <Rbt.Parameter_File>
/export/apps/rDock/src/rDock_2013.1_src/data/scripts/dock_solv.prm

>  <Rbt.Receptor>
prm/pocket_docking_4.prm

>  <SCORE>
-15.0346

>  <SCORE.INTER>
-15.0346

>  <SCORE.INTER.CONST>
1

>  <SCORE.INTER.POLAR>
0

>  <SCORE.INTER.ROT>
0

>  <SCORE.INTER.SOLV>
15.5864

>  <SCORE.INTER.VDW>
-18.8185

>  <SCORE.INTER.norm>
-1.25289

>  <SCORE.INTRA>
0

>  <SCORE.INTRA.DIHEDRAL>
0

>  <SCORE.INTRA.DIHEDRAL.0>
0

>  <SCORE.INTRA.POLAR>
0

>  <SCORE.INTRA.POLAR.0>
0

>  <SCORE.INTRA.REPUL>
0

>  <SCORE.INTRA.REPUL.0>
0

>  <SCORE.INTRA.SOLV>
0

>  <SCORE.INTRA.SOLV.lig_0>
-48.1583

>  <SCORE.INTRA.VDW>
0

>  <SCORE.INTRA.VDW.0>
0

>  <SCORE.INTRA.norm>
0

>  <SCORE.RESTR>
0

>  <SCORE.RESTR.CAVITY>
0

>  <SCORE.RESTR.norm>
0

>  <SCORE.SYSTEM>
0

>  <SCORE.SYSTEM.CONST>
0

>  <SCORE.SYSTEM.DIHEDRAL>
0

>  <SCORE.SYSTEM.SOLV>
0

>  <SCORE.SYSTEM.norm>
0

>  <SCORE.heavy>
12

>  <SCORE.norm>
-1.25289

>  <RMSD>
3.049

$$$$
ligand
 OpenBabel11021811503D
libRbt.so/2013.1/901 2013/11/27
 12 13  0  0  0  0  0  0  0  0999 V2000
    4.6800   15.3928    3.9533 C   0  0  0  0  0  0  0  0  0  0  0  0
    6.0094   17.0167    2.9382 C   0  0  0  0  0  0  0  0  0  0  0  0
    4.0112   14.2469    3.8618 N   0  0  0  0  0  0  0  0  0  0  0  0
    6.6379   17.5408    1.8801 N   0  0  0  0  0  0  0  0  0  0  0  0
    5.3094   15.8772    2.8604 N   0  0  0  0  0  0  0  0  0  0  0  0
    4.7423   16.0381    5.1393 N   0  0  0  0  0  0  0  0  0  0  0  0
    6.8468   19.5852    5.4619 N   0  0  0  0  0  0  0  0  0  0  0  0
    6.1850   19.0487    6.5771 C   0  0  0  0  0  0  0  0  0  0  0  0
    5.4599   17.8404    6.4554 N   0  0  0  0  0  0  0  0  0  0  0  0
    5.4292   17.2008    5.2663 C   0  0  0  0  0  0  0  0  0  0  0  0
    6.0930   17.7163    4.1483 C   0  0  0  0  0  0  0  0  0  0  0  0
    6.8083   18.9098    4.2260 C   0  0  0  0  0  0  0  0  0  0  0  0
  1  3  1  0  0  0  0
  1  5  1  0  0  0  0
  1  6  2  0  0  0  0
  2  5  2  0  0  0  0
  2 11  1  0  0  0  0
  2  4  1  0  0  0  0
  6 10  1  0  0  0  0
  7  8  2  0  0  0  0
  7 12  1  0  0  0  0
  8  9  1  0  0  0  0
  9 10  2  0  0  0  0
 10 11  1  0  0  0  0
 11 12  2  0  0  0  0
M  END
>  <CHROM.1>
5.67030166,17.17455638,4.38807707,2.26518778,-0.96664182,-2.01690946

>  <Name>
ligand

>  <RI>
0

>  <Rbt.Current_Directory>
/home/itssahil/PROJECTS/Mol_Feturizer/New_Systems/rnas/4LX5

>  <Rbt.Executable>
rbdock ($Id: //depot/dev/client3/rdock/2013.1/src/exe/rbdock.cxx#4 $)

>  <Rbt.Library>
libRbt.so (2013.1, Build901 2013/11/27)

>  <Rbt.Parameter_File>
/export/apps/rDock/src/rDock_2013.1_src/data/scripts/dock_solv.prm

>  <Rbt.Receptor>
prm/pocket_docking_5.prm

>  <SCORE>
-15.0397

>  <SCORE.INTER>
-15.0397

>  <SCORE.INTER.CONST>
1

>  <SCORE.INTER.POLAR>
0

>  <SCORE.INTER.ROT>
0

>  <SCORE.INTER.SOLV>
15.5946

>  <SCORE.INTER.VDW>
-18.8247

>  <SCORE.INTER.norm>
-1.25331

>  <SCORE.INTRA>
0

>  <SCORE.INTRA.DIHEDRAL>
0

>  <SCORE.INTRA.DIHEDRAL.0>
0

>  <SCORE.INTRA.POLAR>
0

>  <SCORE.INTRA.POLAR.0>
0

>  <SCORE.INTRA.REPUL>
0

>  <SCORE.INTRA.REPUL.0>
0

>  <SCORE.INTRA.SOLV>
0

>  <SCORE.INTRA.SOLV.lig_0>
-48.1583

>  <SCORE.INTRA.VDW>
0

>  <SCORE.INTRA.VDW.0>
0

>  <SCORE.INTRA.norm>
0

>  <SCORE.RESTR>
0

>  <SCORE.RESTR.CAVITY>
0

>  <SCORE.RESTR.norm>
0

>  <SCORE.SYSTEM>
0

>  <SCORE.SYSTEM.CONST>
0

>  <SCORE.SYSTEM.DIHEDRAL>
0

>  <SCORE.SYSTEM.SOLV>
0

>  <SCORE.SYSTEM.norm>
0

>  <SCORE.heavy>
12

>  <SCORE.norm>
-1.25331

>  <RMSD>
3.049

$$$$
ligand
 OpenBabel11021811503D
libRbt.so/2013.1/901 2013/11/27
 12 13  0  0  0  0  0  0  0  0999 V2000
    4.6763   15.4722    3.9608 C   0  0  0  0  0  0  0  0  0  0  0  0
    6.0347   17.0787    2.9565 C   0  0  0  0  0  0  0  0  0  0  0  0
    3.9885   14.3382    3.8621 N   0  0  0  0  0  0  0  0  0  0  0  0
    6.6738   17.5977    1.9023 N   0  0  0  0  0  0  0  0  0  0  0  0
    5.3157   15.9516    2.8715 N   0  0  0  0  0  0  0  0  0  0  0  0
    4.7473   16.1101    5.1502 N   0  0  0  0  0  0  0  0  0  0  0  0
    6.9106   19.6195    5.4951 N   0  0  0  0  0  0  0  0  0  0  0  0
    6.2378   19.0885    6.6063 C   0  0  0  0  0  0  0  0  0  0  0  0
    5.4927   17.8932    6.4770 N   0  0  0  0  0  0  0  0  0  0  0  0
    5.4534   17.2604    5.2845 C   0  0  0  0  0  0  0  0  0  0  0  0
    6.1278   17.7705    4.1704 C   0  0  0  0  0  0  0  0  0  0  0  0
    6.8630   18.9514    4.2556 C   0  0  0  0  0  0  0  0  0  0  0  0
  1  3  1  0  0  0  0
  1  5  1  0  0  0  0
  1  6  2  0  0  0  0
  2  5  2  0  0  0  0
  2 11  1  0  0  0  0
  2  4  1  0  0  0  0
  6 10  1  0  0  0  0
  7  8  2  0  0  0  0
  7 12  1  0  0  0  0
  8  9  1  0  0  0  0
  9 10  2  0  0  0  0
 10 11  1  0  0  0  0
 11 12  2  0  0  0  0
M  END
>  <CHROM.1>
5.69566021,17.23470819,4.40659687,2.27487975,-0.95065910,-2.00374859

>  <Name>
ligand

>  <RI>
0

>  <Rbt.Current_Directory>
/home/itssahil/PROJECTS/Mol_Feturizer/New_Systems/rnas/4LX5

>  <Rbt.Executable>
rbdock ($Id: //depot/dev/client3/rdock/2013.1/src/exe/rbdock.cxx#4 $)

>  <Rbt.Library>
libRbt.so (2013.1, Build901 2013/11/27)

>  <Rbt.Parameter_File>
/export/apps/rDock/src/rDock_2013.1_src/data/scripts/dock_solv.prm

>  <Rbt.Receptor>
prm/pocket_docking_5.prm

>  <SCORE>
-15.0474

>  <SCORE.INTER>
-15.0474

>  <SCORE.INTER.CONST>
1

>  <SCORE.INTER.POLAR>
0

>  <SCORE.INTER.ROT>
0

>  <SCORE.INTER.SOLV>
15.4893

>  <SCORE.INTER.VDW>
-18.7947

>  <SCORE.INTER.norm>
-1.25395

>  <SCORE.INTRA>
0

>  <SCORE.INTRA.DIHEDRAL>
0

>  <SCORE.INTRA.DIHEDRAL.0>
0

>  <SCORE.INTRA.POLAR>
0

>  <SCORE.INTRA.POLAR.0>
0

>  <SCORE.INTRA.REPUL>
0

>  <SCORE.INTRA.REPUL.0>
0

>  <SCORE.INTRA.SOLV>
0

>  <SCORE.INTRA.SOLV.lig_0>
-48.1583

>  <SCORE.INTRA.VDW>
0

>  <SCORE.INTRA.VDW.0>
0

>  <SCORE.INTRA.norm>
0

>  <SCORE.RESTR>
0

>  <SCORE.RESTR.CAVITY>
0

>  <SCORE.RESTR.norm>
0

>  <SCORE.SYSTEM>
0

>  <SCORE.SYSTEM.CONST>
0

>  <SCORE.SYSTEM.DIHEDRAL>
0

>  <SCORE.SYSTEM.SOLV>
0

>  <SCORE.SYSTEM.norm>
0

>  <SCORE.heavy>
12

>  <SCORE.norm>
-1.25395

>  <RMSD>
3.049

$$$$
ligand
 OpenBabel11021811503D
libRbt.so/2013.1/901 2013/11/27
 12 13  0  0  0  0  0  0  0  0999 V2000
    4.6825   15.3957    3.9543 C   0  0  0  0  0  0  0  0  0  0  0  0
    6.0085   17.0221    2.9387 C   0  0  0  0  0  0  0  0  0  0  0  0
    4.0146   14.2493    3.8626 N   0  0  0  0  0  0  0  0  0  0  0  0
    6.6345   17.5480    1.8801 N   0  0  0  0  0  0  0  0  0  0  0  0
    5.3094   15.8820    2.8608 N   0  0  0  0  0  0  0  0  0  0  0  0
    4.7464   16.0396    5.1409 N   0  0  0  0  0  0  0  0  0  0  0  0
    6.8482   19.5882    5.4640 N   0  0  0  0  0  0  0  0  0  0  0  0
    6.1889   19.0498    6.5798 C   0  0  0  0  0  0  0  0  0  0  0  0
    5.4647   17.8409    6.4579 N   0  0  0  0  0  0  0  0  0  0  0  0
    5.4325   17.2028    5.2681 C   0  0  0  0  0  0  0  0  0  0  0  0
    6.0937   17.7203    4.1495 C   0  0  0  0  0  0  0  0  0  0  0  0
    6.8080   18.9144    4.2273 C   0  0  0  0  0  0  0  0  0  0  0  0
  1  3  1  0  0  0  0
  1  5  1  0  0  0  0
  1  6  2  0  0  0  0
  2  5  2  0  0  0  0
  2 11  1  0  0  0  0
  2  4  1  0  0  0  0
  6 10  1  0  0  0  0
  7  8  2  0  0  0  0
  7 12  1  0  0  0  0
  8  9  1  0  0  0  0
  9 10  2  0  0  0  0
 10 11  1  0  0  0  0
 11 12  2  0  0  0  0
M  END
>  <CHROM.1>
5.67195666,17.17784530,4.38940467,2.26744103,-0.96829615,-2.01383503

>  <Name>
ligand

>  <RI>
0

>  <Rbt.Current_Directory>
/home/itssahil/PROJECTS/Mol_Feturizer/New_Systems/rnas/4LX5

>  <Rbt.Executable>
rbdock ($Id: //depot/dev/client3/rdock/2013.1/src/exe/rbdock.cxx#4 $)

>  <Rbt.Library>
libRbt.so (2013.1, Build901 2013/11/27)

>  <Rbt.Parameter_File>
/export/apps/rDock/src/rDock_2013.1_src/data/scripts/dock_solv.prm

>  <Rbt.Receptor>
prm/pocket_docking_6.prm

>  <SCORE>
-15.0388

>  <SCORE.INTER>
-15.0388

>  <SCORE.INTER.CONST>
1

>  <SCORE.INTER.POLAR>
0

>  <SCORE.INTER.ROT>
0

>  <SCORE.INTER.SOLV>
15.6065

>  <SCORE.INTER.VDW>
-18.828

>  <SCORE.INTER.norm>
-1.25323

>  <SCORE.INTRA>
0

>  <SCORE.INTRA.DIHEDRAL>
0

>  <SCORE.INTRA.DIHEDRAL.0>
0

>  <SCORE.INTRA.POLAR>
0

>  <SCORE.INTRA.POLAR.0>
0

>  <SCORE.INTRA.REPUL>
0

>  <SCORE.INTRA.REPUL.0>
0

>  <SCORE.INTRA.SOLV>
0

>  <SCORE.INTRA.SOLV.lig_0>
-48.1583

>  <SCORE.INTRA.VDW>
0

>  <SCORE.INTRA.VDW.0>
0

>  <SCORE.INTRA.norm>
0

>  <SCORE.RESTR>
0

>  <SCORE.RESTR.CAVITY>
0

>  <SCORE.RESTR.norm>
0

>  <SCORE.SYSTEM>
0

>  <SCORE.SYSTEM.CONST>
0

>  <SCORE.SYSTEM.DIHEDRAL>
0

>  <SCORE.SYSTEM.SOLV>
0

>  <SCORE.SYSTEM.norm>
0

>  <SCORE.heavy>
12

>  <SCORE.norm>
-1.25323

>  <RMSD>
3.049

$$$$
ligand
 OpenBabel11021811503D
libRbt.so/2013.1/901 2013/11/27
 12 13  0  0  0  0  0  0  0  0999 V2000
    4.6741   15.4766    3.9634 C   0  0  0  0  0  0  0  0  0  0  0  0
    6.0343   17.0786    2.9543 C   0  0  0  0  0  0  0  0  0  0  0  0
    3.9888   14.3406    3.8693 N   0  0  0  0  0  0  0  0  0  0  0  0
    6.6775   17.5914    1.8996 N   0  0  0  0  0  0  0  0  0  0  0  0
    5.3178   15.9495    2.8738 N   0  0  0  0  0  0  0  0  0  0  0  0
    4.7383   16.1229    5.1486 N   0  0  0  0  0  0  0  0  0  0  0  0
    6.8936   19.6386    5.4794 N   0  0  0  0  0  0  0  0  0  0  0  0
    6.2164   19.1140    6.5911 C   0  0  0  0  0  0  0  0  0  0  0  0
    5.4741   17.9164    6.4665 N   0  0  0  0  0  0  0  0  0  0  0  0
    5.4417   17.2754    5.2783 C   0  0  0  0  0  0  0  0  0  0  0  0
    6.1204   17.7789    4.1639 C   0  0  0  0  0  0  0  0  0  0  0  0
    6.8530   18.9617    4.2443 C   0  0  0  0  0  0  0  0  0  0  0  0
  1  3  1  0  0  0  0
  1  5  1  0  0  0  0
  1  6  2  0  0  0  0
  2  5  2  0  0  0  0
  2 11  1  0  0  0  0
  2  4  1  0  0  0  0
  6 10  1  0  0  0  0
  7  8  2  0  0  0  0
  7 12  1  0  0  0  0
  8  9  1  0  0  0  0
  9 10  2  0  0  0  0
 10 11  1  0  0  0  0
 11 12  2  0  0  0  0
M  END
>  <CHROM.1>
5.68811092,17.24401431,4.40172841,2.26614321,-0.95029530,-2.01779512

>  <Name>
ligand

>  <RI>
0

>  <Rbt.Current_Directory>
/home/itssahil/PROJECTS/Mol_Feturizer/New_Systems/rnas/4LX5

>  <Rbt.Executable>
rbdock ($Id: //depot/dev/client3/rdock/2013.1/src/exe/rbdock.cxx#4 $)

>  <Rbt.Library>
libRbt.so (2013.1, Build901 2013/11/27)

>  <Rbt.Parameter_File>
/export/apps/rDock/src/rDock_2013.1_src/data/scripts/dock_solv.prm

>  <Rbt.Receptor>
prm/pocket_docking_7.prm

>  <SCORE>
-15.084

>  <SCORE.INTER>
-15.084

>  <SCORE.INTER.CONST>
1

>  <SCORE.INTER.POLAR>
0

>  <SCORE.INTER.ROT>
0

>  <SCORE.INTER.SOLV>
15.5076

>  <SCORE.INTER.VDW>
-18.8252

>  <SCORE.INTER.norm>
-1.257

>  <SCORE.INTRA>
0

>  <SCORE.INTRA.DIHEDRAL>
0

>  <SCORE.INTRA.DIHEDRAL.0>
0

>  <SCORE.INTRA.POLAR>
0

>  <SCORE.INTRA.POLAR.0>
0

>  <SCORE.INTRA.REPUL>
0

>  <SCORE.INTRA.REPUL.0>
0

>  <SCORE.INTRA.SOLV>
0

>  <SCORE.INTRA.SOLV.lig_0>
-48.1583

>  <SCORE.INTRA.VDW>
0

>  <SCORE.INTRA.VDW.0>
0

>  <SCORE.INTRA.norm>
0

>  <SCORE.RESTR>
0

>  <SCORE.RESTR.CAVITY>
0

>  <SCORE.RESTR.norm>
0

>  <SCORE.SYSTEM>
0

>  <SCORE.SYSTEM.CONST>
0

>  <SCORE.SYSTEM.DIHEDRAL>
0

>  <SCORE.SYSTEM.SOLV>
0

>  <SCORE.SYSTEM.norm>
0

>  <SCORE.heavy>
12

>  <SCORE.norm>
-1.257

>  <RMSD>
3.049

$$$$
ligand
 OpenBabel11021811503D
libRbt.so/2013.1/901 2013/11/27
 12 13  0  0  0  0  0  0  0  0999 V2000
    4.6709   15.4886    3.9622 C   0  0  0  0  0  0  0  0  0  0  0  0
    6.0382   17.0875    2.9579 C   0  0  0  0  0  0  0  0  0  0  0  0
    3.9805   14.3560    3.8648 N   0  0  0  0  0  0  0  0  0  0  0  0
    6.6836   17.6006    1.9047 N   0  0  0  0  0  0  0  0  0  0  0  0
    5.3167   15.9619    2.8740 N   0  0  0  0  0  0  0  0  0  0  0  0
    4.7380   16.1311    5.1494 N   0  0  0  0  0  0  0  0  0  0  0  0
    6.9089   19.6361    5.4905 N   0  0  0  0  0  0  0  0  0  0  0  0
    6.2295   19.1113    6.6006 C   0  0  0  0  0  0  0  0  0  0  0  0
    5.4819   17.9175    6.4725 N   0  0  0  0  0  0  0  0  0  0  0  0
    5.4465   17.2801    5.2824 C   0  0  0  0  0  0  0  0  0  0  0  0
    6.1275   17.7839    4.1695 C   0  0  0  0  0  0  0  0  0  0  0  0
    6.8654   18.9632    4.2534 C   0  0  0  0  0  0  0  0  0  0  0  0
  1  3  1  0  0  0  0
  1  5  1  0  0  0  0
  1  6  2  0  0  0  0
  2  5  2  0  0  0  0
  2 11  1  0  0  0  0
  2  4  1  0  0  0  0
  6 10  1  0  0  0  0
  7  8  2  0  0  0  0
  7 12  1  0  0  0  0
  8  9  1  0  0  0  0
  9 10  2  0  0  0  0
 10 11  1  0  0  0  0
 11 12  2  0  0  0  0
M  END
>  <CHROM.1>
5.69278864,17.25019331,4.40576131,2.26947595,-0.94627184,-2.01213242

>  <Name>
ligand

>  <RI>
0

>  <Rbt.Current_Directory>
/home/itssahil/PROJECTS/Mol_Feturizer/New_Systems/rnas/4LX5

>  <Rbt.Executable>
rbdock ($Id: //depot/dev/client3/rdock/2013.1/src/exe/rbdock.cxx#4 $)

>  <Rbt.Library>
libRbt.so (2013.1, Build901 2013/11/27)

>  <Rbt.Parameter_File>
/export/apps/rDock/src/rDock_2013.1_src/data/scripts/dock_solv.prm

>  <Rbt.Receptor>
prm/pocket_docking_7.prm

>  <SCORE>
-15.075

>  <SCORE.INTER>
-15.075

>  <SCORE.INTER.CONST>
1

>  <SCORE.INTER.POLAR>
0

>  <SCORE.INTER.ROT>
0

>  <SCORE.INTER.SOLV>
15.4589

>  <SCORE.INTER.VDW>
-18.803

>  <SCORE.INTER.norm>
-1.25625

>  <SCORE.INTRA>
0

>  <SCORE.INTRA.DIHEDRAL>
0

>  <SCORE.INTRA.DIHEDRAL.0>
0

>  <SCORE.INTRA.POLAR>
0

>  <SCORE.INTRA.POLAR.0>
0

>  <SCORE.INTRA.REPUL>
0

>  <SCORE.INTRA.REPUL.0>
0

>  <SCORE.INTRA.SOLV>
0

>  <SCORE.INTRA.SOLV.lig_0>
-48.1583

>  <SCORE.INTRA.VDW>
0

>  <SCORE.INTRA.VDW.0>
0

>  <SCORE.INTRA.norm>
0

>  <SCORE.RESTR>
0

>  <SCORE.RESTR.CAVITY>
0

>  <SCORE.RESTR.norm>
0

>  <SCORE.SYSTEM>
0

>  <SCORE.SYSTEM.CONST>
0

>  <SCORE.SYSTEM.DIHEDRAL>
0

>  <SCORE.SYSTEM.SOLV>
0

>  <SCORE.SYSTEM.norm>
0

>  <SCORE.heavy>
12

>  <SCORE.norm>
-1.25625

>  <RMSD>
3.049

$$$$
ligand
 OpenBabel11021811503D
libRbt.so/2013.1/901 2013/11/27
 12 13  0  0  0  0  0  0  0  0999 V2000
    4.6669   15.4881    3.9594 C   0  0  0  0  0  0  0  0  0  0  0  0
    6.0390   17.0848    2.9580 C   0  0  0  0  0  0  0  0  0  0  0  0
    3.9765   14.3556    3.8610 N   0  0  0  0  0  0  0  0  0  0  0  0
    6.6889   17.5959    1.9066 N   0  0  0  0  0  0  0  0  0  0  0  0
    5.3173   15.9594    2.8731 N   0  0  0  0  0  0  0  0  0  0  0  0
    4.7295   16.1324    5.1458 N   0  0  0  0  0  0  0  0  0  0  0  0
    6.9007   19.6371    5.4900 N   0  0  0  0  0  0  0  0  0  0  0  0
    6.2166   19.1143    6.5983 C   0  0  0  0  0  0  0  0  0  0  0  0
    5.4689   17.9206    6.4691 N   0  0  0  0  0  0  0  0  0  0  0  0
    5.4381   17.2813    5.2799 C   0  0  0  0  0  0  0  0  0  0  0  0
    6.1237   17.7831    4.1689 C   0  0  0  0  0  0  0  0  0  0  0  0
    6.8618   18.9622    4.2539 C   0  0  0  0  0  0  0  0  0  0  0  0
  1  3  1  0  0  0  0
  1  5  1  0  0  0  0
  1  6  2  0  0  0  0
  2  5  2  0  0  0  0
  2 11  1  0  0  0  0
  2  4  1  0  0  0  0
  6 10  1  0  0  0  0
  7  8  2  0  0  0  0
  7 12  1  0  0  0  0
  8  9  1  0  0  0  0
  9 10  2  0  0  0  0
 10 11  1  0  0  0  0
 11 12  2  0  0  0  0
M  END
>  <CHROM.1>
5.68784503,17.24995719,4.40426000,2.26360266,-0.94415822,-2.01849146

>  <Name>
ligand

>  <RI>
0

>  <Rbt.Current_Directory>
/home/itssahil/PROJECTS/Mol_Feturizer/New_Systems/rnas/4LX5

>  <Rbt.Executable>
rbdock ($Id: //depot/dev/client3/rdock/2013.1/src/exe/rbdock.cxx#4 $)

>  <Rbt.Library>
libRbt.so (2013.1, Build901 2013/11/27)

>  <Rbt.Parameter_File>
/export/apps/rDock/src/rDock_2013.1_src/data/scripts/dock_solv.prm

>  <Rbt.Receptor>
prm/pocket_docking_7.prm

>  <SCORE>
-15.0753

>  <SCORE.INTER>
-15.0753

>  <SCORE.INTER.CONST>
1

>  <SCORE.INTER.POLAR>
0

>  <SCORE.INTER.ROT>
0

>  <SCORE.INTER.SOLV>
15.4416

>  <SCORE.INTER.VDW>
-18.7974

>  <SCORE.INTER.norm>
-1.25627

>  <SCORE.INTRA>
0

>  <SCORE.INTRA.DIHEDRAL>
0

>  <SCORE.INTRA.DIHEDRAL.0>
0

>  <SCORE.INTRA.POLAR>
0

>  <SCORE.INTRA.POLAR.0>
0

>  <SCORE.INTRA.REPUL>
0

>  <SCORE.INTRA.REPUL.0>
0

>  <SCORE.INTRA.SOLV>
0

>  <SCORE.INTRA.SOLV.lig_0>
-48.1583

>  <SCORE.INTRA.VDW>
0

>  <SCORE.INTRA.VDW.0>
0

>  <SCORE.INTRA.norm>
0

>  <SCORE.RESTR>
0

>  <SCORE.RESTR.CAVITY>
0

>  <SCORE.RESTR.norm>
0

>  <SCORE.SYSTEM>
0

>  <SCORE.SYSTEM.CONST>
0

>  <SCORE.SYSTEM.DIHEDRAL>
0

>  <SCORE.SYSTEM.SOLV>
0

>  <SCORE.SYSTEM.norm>
0

>  <SCORE.heavy>
12

>  <SCORE.norm>
-1.25627

>  <RMSD>
3.049

$$$$
ligand
 OpenBabel11021811503D
libRbt.so/2013.1/901 2013/11/27
 12 13  0  0  0  0  0  0  0  0999 V2000
    4.6762   15.4775    3.9644 C   0  0  0  0  0  0  0  0  0  0  0  0
    6.0352   17.0797    2.9538 C   0  0  0  0  0  0  0  0  0  0  0  0
    3.9903   14.3419    3.8709 N   0  0  0  0  0  0  0  0  0  0  0  0
    6.6765   17.5929    1.8981 N   0  0  0  0  0  0  0  0  0  0  0  0
    5.3181   15.9509    2.8739 N   0  0  0  0  0  0  0  0  0  0  0  0
    4.7429   16.1230    5.1499 N   0  0  0  0  0  0  0  0  0  0  0  0
    6.9002   19.6377    5.4788 N   0  0  0  0  0  0  0  0  0  0  0  0
    6.2250   19.1127    6.5915 C   0  0  0  0  0  0  0  0  0  0  0  0
    5.4820   17.9155    6.4675 N   0  0  0  0  0  0  0  0  0  0  0  0
    5.4470   17.2752    5.2790 C   0  0  0  0  0  0  0  0  0  0  0  0
    6.1238   17.7792    4.1636 C   0  0  0  0  0  0  0  0  0  0  0  0
    6.8571   18.9617    4.2434 C   0  0  0  0  0  0  0  0  0  0  0  0
  1  3  1  0  0  0  0
  1  5  1  0  0  0  0
  1  6  2  0  0  0  0
  2  5  2  0  0  0  0
  2 11  1  0  0  0  0
  2  4  1  0  0  0  0
  6 10  1  0  0  0  0
  7  8  2  0  0  0  0
  7 12  1  0  0  0  0
  8  9  1  0  0  0  0
  9 10  2  0  0  0  0
 10 11  1  0  0  0  0
 11 12  2  0  0  0  0
M  END
>  <CHROM.1>
5.69179642,17.24429313,4.40191618,2.26940064,-0.95076777,-2.01451222

>  <Name>
ligand

>  <RI>
0

>  <Rbt.Current_Directory>
/home/itssahil/PROJECTS/Mol_Feturizer/New_Systems/rnas/4LX5

>  <Rbt.Executable>
rbdock ($Id: //depot/dev/client3/rdock/2013.1/src/exe/rbdock.cxx#4 $)

>  <Rbt.Library>
libRbt.so (2013.1, Build901 2013/11/27)

>  <Rbt.Parameter_File>
/export/apps/rDock/src/rDock_2013.1_src/data/scripts/dock_solv.prm

>  <Rbt.Receptor>
prm/pocket_docking_7.prm

>  <SCORE>
-15.0831

>  <SCORE.INTER>
-15.0831

>  <SCORE.INTER.CONST>
1

>  <SCORE.INTER.POLAR>
0

>  <SCORE.INTER.ROT>
0

>  <SCORE.INTER.SOLV>
15.5153

>  <SCORE.INTER.VDW>
-18.8272

>  <SCORE.INTER.norm>
-1.25692

>  <SCORE.INTRA>
0

>  <SCORE.INTRA.DIHEDRAL>
0

>  <SCORE.INTRA.DIHEDRAL.0>
0

>  <SCORE.INTRA.POLAR>
0

>  <SCORE.INTRA.POLAR.0>
0

>  <SCORE.INTRA.REPUL>
0

>  <SCORE.INTRA.REPUL.0>
0

>  <SCORE.INTRA.SOLV>
0

>  <SCORE.INTRA.SOLV.lig_0>
-48.1583

>  <SCORE.INTRA.VDW>
0

>  <SCORE.INTRA.VDW.0>
0

>  <SCORE.INTRA.norm>
0

>  <SCORE.RESTR>
0

>  <SCORE.RESTR.CAVITY>
0

>  <SCORE.RESTR.norm>
0

>  <SCORE.SYSTEM>
0

>  <SCORE.SYSTEM.CONST>
0

>  <SCORE.SYSTEM.DIHEDRAL>
0

>  <SCORE.SYSTEM.SOLV>
0

>  <SCORE.SYSTEM.norm>
0

>  <SCORE.heavy>
12

>  <SCORE.norm>
-1.25692

>  <RMSD>
3.049

$$$$
ligand
 OpenBabel11021811503D
libRbt.so/2013.1/901 2013/11/27
 12 13  0  0  0  0  0  0  0  0999 V2000
    4.6737   15.4801    3.9615 C   0  0  0  0  0  0  0  0  0  0  0  0
    6.0370   17.0806    2.9540 C   0  0  0  0  0  0  0  0  0  0  0  0
    3.9865   14.3454    3.8664 N   0  0  0  0  0  0  0  0  0  0  0  0
    6.6813   17.5930    1.8998 N   0  0  0  0  0  0  0  0  0  0  0  0
    5.3186   15.9528    2.8725 N   0  0  0  0  0  0  0  0  0  0  0  0
    4.7387   16.1254    5.1473 N   0  0  0  0  0  0  0  0  0  0  0  0
    6.8999   19.6372    5.4812 N   0  0  0  0  0  0  0  0  0  0  0  0
    6.2216   19.1130    6.5923 C   0  0  0  0  0  0  0  0  0  0  0  0
    5.4773   17.9168    6.4666 N   0  0  0  0  0  0  0  0  0  0  0  0
    5.4440   17.2767    5.2779 C   0  0  0  0  0  0  0  0  0  0  0  0
    6.1239   17.7799    4.1641 C   0  0  0  0  0  0  0  0  0  0  0  0
    6.8586   18.9614    4.2456 C   0  0  0  0  0  0  0  0  0  0  0  0
  1  3  1  0  0  0  0
  1  5  1  0  0  0  0
  1  6  2  0  0  0  0
  2  5  2  0  0  0  0
  2 11  1  0  0  0  0
  2  4  1  0  0  0  0
  6 10  1  0  0  0  0
  7  8  2  0  0  0  0
  7 12  1  0  0  0  0
  8  9  1  0  0  0  0
  9 10  2  0  0  0  0
 10 11  1  0  0  0  0
 11 12  2  0  0  0  0
M  END
>  <CHROM.1>
5.69066930,17.24551446,4.40141747,2.26698681,-0.94863657,-2.01638258

>  <Name>
ligand

>  <RI>
0

>  <Rbt.Current_Directory>
/home/itssahil/PROJECTS/Mol_Feturizer/New_Systems/rnas/4LX5

>  <Rbt.Executable>
rbdock ($Id: //depot/dev/client3/rdock/2013.1/src/exe/rbdock.cxx#4 $)

>  <Rbt.Library>
libRbt.so (2013.1, Build901 2013/11/27)

>  <Rbt.Parameter_File>
/export/apps/rDock/src/rDock_2013.1_src/data/scripts/dock_solv.prm

>  <Rbt.Receptor>
prm/pocket_docking_7.prm

>  <SCORE>
-15.0828

>  <SCORE.INTER>
-15.0828

>  <SCORE.INTER.CONST>
1

>  <SCORE.INTER.POLAR>
0

>  <SCORE.INTER.ROT>
0

>  <SCORE.INTER.SOLV>
15.4951

>  <SCORE.INTER.VDW>
-18.8202

>  <SCORE.INTER.norm>
-1.2569

>  <SCORE.INTRA>
0

>  <SCORE.INTRA.DIHEDRAL>
0

>  <SCORE.INTRA.DIHEDRAL.0>
0

>  <SCORE.INTRA.POLAR>
0

>  <SCORE.INTRA.POLAR.0>
0

>  <SCORE.INTRA.REPUL>
0

>  <SCORE.INTRA.REPUL.0>
0

>  <SCORE.INTRA.SOLV>
0

>  <SCORE.INTRA.SOLV.lig_0>
-48.1583

>  <SCORE.INTRA.VDW>
0

>  <SCORE.INTRA.VDW.0>
0

>  <SCORE.INTRA.norm>
0

>  <SCORE.RESTR>
0

>  <SCORE.RESTR.CAVITY>
0

>  <SCORE.RESTR.norm>
0

>  <SCORE.SYSTEM>
0

>  <SCORE.SYSTEM.CONST>
0

>  <SCORE.SYSTEM.DIHEDRAL>
0

>  <SCORE.SYSTEM.SOLV>
0

>  <SCORE.SYSTEM.norm>
0

>  <SCORE.heavy>
12

>  <SCORE.norm>
-1.2569

>  <RMSD>
3.049

$$$$
ligand
 OpenBabel11021811503D
libRbt.so/2013.1/901 2013/11/27
 12 13  0  0  0  0  0  0  0  0999 V2000
    4.6884   15.4539    3.9686 C   0  0  0  0  0  0  0  0  0  0  0  0
    6.0417   17.0581    2.9537 C   0  0  0  0  0  0  0  0  0  0  0  0
    4.0105   14.3131    3.8796 N   0  0  0  0  0  0  0  0  0  0  0  0
    6.6849   17.5683    1.8978 N   0  0  0  0  0  0  0  0  0  0  0  0
    5.3326   15.9240    2.8781 N   0  0  0  0  0  0  0  0  0  0  0  0
    4.7448   16.1080    5.1500 N   0  0  0  0  0  0  0  0  0  0  0  0
    6.8769   19.6392    5.4652 N   0  0  0  0  0  0  0  0  0  0  0  0
    6.1996   19.1174    6.5781 C   0  0  0  0  0  0  0  0  0  0  0  0
    5.4652   17.9145    6.4588 N   0  0  0  0  0  0  0  0  0  0  0  0
    5.4405   17.2657    5.2745 C   0  0  0  0  0  0  0  0  0  0  0  0
    6.1196   17.7665    4.1591 C   0  0  0  0  0  0  0  0  0  0  0  0
    6.8445   18.9544    4.2343 C   0  0  0  0  0  0  0  0  0  0  0  0
  1  3  1  0  0  0  0
  1  5  1  0  0  0  0
  1  6  2  0  0  0  0
  2  5  2  0  0  0  0
  2 11  1  0  0  0  0
  2  4  1  0  0  0  0
  6 10  1  0  0  0  0
  7  8  2  0  0  0  0
  7 12  1  0  0  0  0
  8  9  1  0  0  0  0
  9 10  2  0  0  0  0
 10 11  1  0  0  0  0
 11 12  2  0  0  0  0
M  END
>  <CHROM.1>
5.68990538,17.23040580,4.39896603,2.25651537,-0.95457133,-2.03194819

>  <Name>
ligand

>  <RI>
0

>  <Rbt.Current_Directory>
/home/itssahil/PROJECTS/Mol_Feturizer/New_Systems/rnas/4LX5

>  <Rbt.Executable>
rbdock ($Id: //depot/dev/client3/rdock/2013.1/src/exe/rbdock.cxx#4 $)

>  <Rbt.Library>
libRbt.so (2013.1, Build901 2013/11/27)

>  <Rbt.Parameter_File>
/export/apps/rDock/src/rDock_2013.1_src/data/scripts/dock_solv.prm

>  <Rbt.Receptor>
prm/pocket_docking_8.prm

>  <SCORE>
-15.0413

>  <SCORE.INTER>
-15.0413

>  <SCORE.INTER.CONST>
1

>  <SCORE.INTER.POLAR>
0

>  <SCORE.INTER.ROT>
0

>  <SCORE.INTER.SOLV>
15.6474

>  <SCORE.INTER.VDW>
-18.8433

>  <SCORE.INTER.norm>
-1.25344

>  <SCORE.INTRA>
0

>  <SCORE.INTRA.DIHEDRAL>
0

>  <SCORE.INTRA.DIHEDRAL.0>
0

>  <SCORE.INTRA.POLAR>
0

>  <SCORE.INTRA.POLAR.0>
0

>  <SCORE.INTRA.REPUL>
0

>  <SCORE.INTRA.REPUL.0>
0

>  <SCORE.INTRA.SOLV>
0

>  <SCORE.INTRA.SOLV.lig_0>
-48.1583

>  <SCORE.INTRA.VDW>
0

>  <SCORE.INTRA.VDW.0>
0

>  <SCORE.INTRA.norm>
0

>  <SCORE.RESTR>
0

>  <SCORE.RESTR.CAVITY>
0

>  <SCORE.RESTR.norm>
0

>  <SCORE.SYSTEM>
0

>  <SCORE.SYSTEM.CONST>
0

>  <SCORE.SYSTEM.DIHEDRAL>
0

>  <SCORE.SYSTEM.SOLV>
0

>  <SCORE.SYSTEM.norm>
0

>  <SCORE.heavy>
12

>  <SCORE.norm>
-1.25344

>  <RMSD>
3.049

$$$$
ligand
 OpenBabel11021811503D
libRbt.so/2013.1/901 2013/11/27
 12 13  0  0  0  0  0  0  0  0999 V2000
    4.6653   15.4582    3.9574 C   0  0  0  0  0  0  0  0  0  0  0  0
    6.0406   17.0526    2.9567 C   0  0  0  0  0  0  0  0  0  0  0  0
    3.9741   14.3261    3.8590 N   0  0  0  0  0  0  0  0  0  0  0  0
    6.6929   17.5619    1.9060 N   0  0  0  0  0  0  0  0  0  0  0  0
    5.3182   15.9276    2.8718 N   0  0  0  0  0  0  0  0  0  0  0  0
    4.7260   16.1040    5.1431 N   0  0  0  0  0  0  0  0  0  0  0  0
    6.8991   19.6074    5.4872 N   0  0  0  0  0  0  0  0  0  0  0  0
    6.2124   19.0866    6.5948 C   0  0  0  0  0  0  0  0  0  0  0  0
    5.4641   17.8932    6.4656 N   0  0  0  0  0  0  0  0  0  0  0  0
    5.4351   17.2525    5.2771 C   0  0  0  0  0  0  0  0  0  0  0  0
    6.1234   17.7523    4.1669 C   0  0  0  0  0  0  0  0  0  0  0  0
    6.8622   18.9309    4.2518 C   0  0  0  0  0  0  0  0  0  0  0  0
  1  3  1  0  0  0  0
  1  5  1  0  0  0  0
  1  6  2  0  0  0  0
  2  5  2  0  0  0  0
  2 11  1  0  0  0  0
  2  4  1  0  0  0  0
  6 10  1  0  0  0  0
  7  8  2  0  0  0  0
  7 12  1  0  0  0  0
  8  9  1  0  0  0  0
  9 10  2  0  0  0  0
 10 11  1  0  0  0  0
 11 12  2  0  0  0  0
M  END
>  <CHROM.1>
5.68661891,17.21980901,4.40204108,2.26109096,-0.94259862,-2.02178034

>  <Name>
ligand

>  <RI>
0

>  <Rbt.Current_Directory>
/home/itssahil/PROJECTS/Mol_Feturizer/New_Systems/rnas/4LX5

>  <Rbt.Executable>
rbdock ($Id: //depot/dev/client3/rdock/2013.1/src/exe/rbdock.cxx#4 $)

>  <Rbt.Library>
libRbt.so (2013.1, Build901 2013/11/27)

>  <Rbt.Parameter_File>
/export/apps/rDock/src/rDock_2013.1_src/data/scripts/dock_solv.prm

>  <Rbt.Receptor>
prm/blind_docking_100.prm

>  <SCORE>
-15.0175

>  <SCORE.INTER>
-15.0175

>  <SCORE.INTER.CONST>
1

>  <SCORE.INTER.POLAR>
0

>  <SCORE.INTER.ROT>
0

>  <SCORE.INTER.SOLV>
15.4432

>  <SCORE.INTER.VDW>
-18.7594

>  <SCORE.INTER.norm>
-1.25146

>  <SCORE.INTRA>
0

>  <SCORE.INTRA.DIHEDRAL>
0

>  <SCORE.INTRA.DIHEDRAL.0>
0

>  <SCORE.INTRA.POLAR>
0

>  <SCORE.INTRA.POLAR.0>
0

>  <SCORE.INTRA.REPUL>
0

>  <SCORE.INTRA.REPUL.0>
0

>  <SCORE.INTRA.SOLV>
0

>  <SCORE.INTRA.SOLV.lig_0>
-48.1583

>  <SCORE.INTRA.VDW>
0

>  <SCORE.INTRA.VDW.0>
0

>  <SCORE.INTRA.norm>
0

>  <SCORE.RESTR>
0

>  <SCORE.RESTR.CAVITY>
0

>  <SCORE.RESTR.norm>
0

>  <SCORE.SYSTEM>
0

>  <SCORE.SYSTEM.CONST>
0

>  <SCORE.SYSTEM.DIHEDRAL>
0

>  <SCORE.SYSTEM.SOLV>
0

>  <SCORE.SYSTEM.norm>
0

>  <SCORE.heavy>
12

>  <SCORE.norm>
-1.25146

>  <RMSD>
3.050

$$$$
ligand
 OpenBabel11021811503D
libRbt.so/2013.1/901 2013/11/27
 12 13  0  0  0  0  0  0  0  0999 V2000
    4.6858   15.4550    3.9687 C   0  0  0  0  0  0  0  0  0  0  0  0
    6.0396   17.0594    2.9549 C   0  0  0  0  0  0  0  0  0  0  0  0
    4.0080   14.3142    3.8791 N   0  0  0  0  0  0  0  0  0  0  0  0
    6.6834   17.5698    1.8994 N   0  0  0  0  0  0  0  0  0  0  0  0
    5.3305   15.9253    2.8787 N   0  0  0  0  0  0  0  0  0  0  0  0
    4.7415   16.1088    5.1502 N   0  0  0  0  0  0  0  0  0  0  0  0
    6.8734   19.6400    5.4674 N   0  0  0  0  0  0  0  0  0  0  0  0
    6.1955   19.1180    6.5798 C   0  0  0  0  0  0  0  0  0  0  0  0
    5.4612   17.9150    6.4598 N   0  0  0  0  0  0  0  0  0  0  0  0
    5.4372   17.2666    5.2754 C   0  0  0  0  0  0  0  0  0  0  0  0
    6.1168   17.7676    4.1605 C   0  0  0  0  0  0  0  0  0  0  0  0
    6.8417   18.9555    4.2363 C   0  0  0  0  0  0  0  0  0  0  0  0
  1  3  1  0  0  0  0
  1  5  1  0  0  0  0
  1  6  2  0  0  0  0
  2  5  2  0  0  0  0
  2 11  1  0  0  0  0
  2  4  1  0  0  0  0
  6 10  1  0  0  0  0
  7  8  2  0  0  0  0
  7 12  1  0  0  0  0
  8  9  1  0  0  0  0
  9 10  2  0  0  0  0
 10 11  1  0  0  0  0
 11 12  2  0  0  0  0
M  END
>  <CHROM.1>
5.68703069,17.23140279,4.39996756,2.25565969,-0.95433902,-2.03244706

>  <Name>
ligand

>  <RI>
0

>  <Rbt.Current_Directory>
/home/itssahil/PROJECTS/Mol_Feturizer/New_Systems/rnas/4LX5

>  <Rbt.Executable>
rbdock ($Id: //depot/dev/client3/rdock/2013.1/src/exe/rbdock.cxx#4 $)

>  <Rbt.Library>
libRbt.so (2013.1, Build901 2013/11/27)

>  <Rbt.Parameter_File>
/export/apps/rDock/src/rDock_2013.1_src/data/scripts/dock_solv.prm

>  <Rbt.Receptor>
prm/pocket_docking_3.prm

>  <SCORE>
-15.04

>  <SCORE.INTER>
-15.04

>  <SCORE.INTER.CONST>
1

>  <SCORE.INTER.POLAR>
0

>  <SCORE.INTER.ROT>
0

>  <SCORE.INTER.SOLV>
15.6312

>  <SCORE.INTER.VDW>
-18.837

>  <SCORE.INTER.norm>
-1.25333

>  <SCORE.INTRA>
0

>  <SCORE.INTRA.DIHEDRAL>
0

>  <SCORE.INTRA.DIHEDRAL.0>
0

>  <SCORE.INTRA.POLAR>
0

>  <SCORE.INTRA.POLAR.0>
0

>  <SCORE.INTRA.REPUL>
0

>  <SCORE.INTRA.REPUL.0>
0

>  <SCORE.INTRA.SOLV>
0

>  <SCORE.INTRA.SOLV.lig_0>
-48.1583

>  <SCORE.INTRA.VDW>
0

>  <SCORE.INTRA.VDW.0>
0

>  <SCORE.INTRA.norm>
0

>  <SCORE.RESTR>
0

>  <SCORE.RESTR.CAVITY>
0

>  <SCORE.RESTR.norm>
0

>  <SCORE.SYSTEM>
0

>  <SCORE.SYSTEM.CONST>
0

>  <SCORE.SYSTEM.DIHEDRAL>
0

>  <SCORE.SYSTEM.SOLV>
0

>  <SCORE.SYSTEM.norm>
0

>  <SCORE.heavy>
12

>  <SCORE.norm>
-1.25333

>  <RMSD>
3.050

$$$$
ligand
 OpenBabel11021811503D
libRbt.so/2013.1/901 2013/11/27
 12 13  0  0  0  0  0  0  0  0999 V2000
    4.6777   15.4001    3.9606 C   0  0  0  0  0  0  0  0  0  0  0  0
    6.0066   17.0204    2.9389 C   0  0  0  0  0  0  0  0  0  0  0  0
    4.0067   14.2552    3.8728 N   0  0  0  0  0  0  0  0  0  0  0  0
    6.6325   17.5420    1.8781 N   0  0  0  0  0  0  0  0  0  0  0  0
    5.3044   15.8819    2.8649 N   0  0  0  0  0  0  0  0  0  0  0  0
    4.7449   16.0469    5.1454 N   0  0  0  0  0  0  0  0  0  0  0  0
    6.8563   19.5909    5.4564 N   0  0  0  0  0  0  0  0  0  0  0  0
    6.1971   19.0571    6.5745 C   0  0  0  0  0  0  0  0  0  0  0  0
    5.4697   17.8498    6.4567 N   0  0  0  0  0  0  0  0  0  0  0  0
    5.4341   17.2087    5.2686 C   0  0  0  0  0  0  0  0  0  0  0  0
    6.0951   17.7215    4.1478 C   0  0  0  0  0  0  0  0  0  0  0  0
    6.8127   18.9139    4.2215 C   0  0  0  0  0  0  0  0  0  0  0  0
  1  3  1  0  0  0  0
  1  5  1  0  0  0  0
  1  6  2  0  0  0  0
  2  5  2  0  0  0  0
  2 11  1  0  0  0  0
  2  4  1  0  0  0  0
  6 10  1  0  0  0  0
  7  8  2  0  0  0  0
  7 12  1  0  0  0  0
  8  9  1  0  0  0  0
  9 10  2  0  0  0  0
 10 11  1  0  0  0  0
 11 12  2  0  0  0  0
M  END
>  <CHROM.1>
5.67235592,17.18080505,4.38965323,2.27154358,-0.96652142,-2.01306712

>  <Name>
ligand

>  <RI>
0

>  <Rbt.Current_Directory>
/home/itssahil/PROJECTS/Mol_Feturizer/New_Systems/rnas/4LX5

>  <Rbt.Executable>
rbdock ($Id: //depot/dev/client3/rdock/2013.1/src/exe/rbdock.cxx#4 $)

>  <Rbt.Library>
libRbt.so (2013.1, Build901 2013/11/27)

>  <Rbt.Parameter_File>
/export/apps/rDock/src/rDock_2013.1_src/data/scripts/dock_solv.prm

>  <Rbt.Receptor>
prm/pocket_docking_4.prm

>  <SCORE>
-15.0352

>  <SCORE.INTER>
-15.0352

>  <SCORE.INTER.CONST>
1

>  <SCORE.INTER.POLAR>
0

>  <SCORE.INTER.ROT>
0

>  <SCORE.INTER.SOLV>
15.5728

>  <SCORE.INTER.VDW>
-18.8144

>  <SCORE.INTER.norm>
-1.25293

>  <SCORE.INTRA>
0

>  <SCORE.INTRA.DIHEDRAL>
0

>  <SCORE.INTRA.DIHEDRAL.0>
0

>  <SCORE.INTRA.POLAR>
0

>  <SCORE.INTRA.POLAR.0>
0

>  <SCORE.INTRA.REPUL>
0

>  <SCORE.INTRA.REPUL.0>
0

>  <SCORE.INTRA.SOLV>
0

>  <SCORE.INTRA.SOLV.lig_0>
-48.1583

>  <SCORE.INTRA.VDW>
0

>  <SCORE.INTRA.VDW.0>
0

>  <SCORE.INTRA.norm>
0

>  <SCORE.RESTR>
0

>  <SCORE.RESTR.CAVITY>
0

>  <SCORE.RESTR.norm>
0

>  <SCORE.SYSTEM>
0

>  <SCORE.SYSTEM.CONST>
0

>  <SCORE.SYSTEM.DIHEDRAL>
0

>  <SCORE.SYSTEM.SOLV>
0

>  <SCORE.SYSTEM.norm>
0

>  <SCORE.heavy>
12

>  <SCORE.norm>
-1.25293

>  <RMSD>
3.050

$$$$
ligand
 OpenBabel11021811503D
libRbt.so/2013.1/901 2013/11/27
 12 13  0  0  0  0  0  0  0  0999 V2000
    4.6674   15.4611    3.9552 C   0  0  0  0  0  0  0  0  0  0  0  0
    6.0370   17.0662    2.9639 C   0  0  0  0  0  0  0  0  0  0  0  0
    3.9809   14.3268    3.8504 N   0  0  0  0  0  0  0  0  0  0  0  0
    6.6881   17.5835    1.9163 N   0  0  0  0  0  0  0  0  0  0  0  0
    5.3192   15.9388    2.8726 N   0  0  0  0  0  0  0  0  0  0  0  0
    4.7245   16.1010    5.1443 N   0  0  0  0  0  0  0  0  0  0  0  0
    6.8831   19.6114    5.5083 N   0  0  0  0  0  0  0  0  0  0  0  0
    6.1976   19.0821    6.6125 C   0  0  0  0  0  0  0  0  0  0  0  0
    5.4542   17.8865    6.4766 N   0  0  0  0  0  0  0  0  0  0  0  0
    5.4289   17.2517    5.2848 C   0  0  0  0  0  0  0  0  0  0  0  0
    6.1160   17.7600    4.1777 C   0  0  0  0  0  0  0  0  0  0  0  0
    6.8499   18.9412    4.2694 C   0  0  0  0  0  0  0  0  0  0  0  0
  1  3  1  0  0  0  0
  1  5  1  0  0  0  0
  1  6  2  0  0  0  0
  2  5  2  0  0  0  0
  2 11  1  0  0  0  0
  2  4  1  0  0  0  0
  6 10  1  0  0  0  0
  7  8  2  0  0  0  0
  7 12  1  0  0  0  0
  8  9  1  0  0  0  0
  9 10  2  0  0  0  0
 10 11  1  0  0  0  0
 11 12  2  0  0  0  0
M  END
>  <CHROM.1>
5.68121006,17.22456161,4.40977837,2.25682002,-0.94588236,-2.02009357

>  <Name>
ligand

>  <RI>
0

>  <Rbt.Current_Directory>
/home/itssahil/PROJECTS/Mol_Feturizer/New_Systems/rnas/4LX5

>  <Rbt.Executable>
rbdock ($Id: //depot/dev/client3/rdock/2013.1/src/exe/rbdock.cxx#4 $)

>  <Rbt.Library>
libRbt.so (2013.1, Build901 2013/11/27)

>  <Rbt.Parameter_File>
/export/apps/rDock/src/rDock_2013.1_src/data/scripts/dock_solv.prm

>  <Rbt.Receptor>
prm/pocket_docking_5.prm

>  <SCORE>
-15.0153

>  <SCORE.INTER>
-15.0153

>  <SCORE.INTER.CONST>
1

>  <SCORE.INTER.POLAR>
0

>  <SCORE.INTER.ROT>
0

>  <SCORE.INTER.SOLV>
15.4522

>  <SCORE.INTER.VDW>
-18.7609

>  <SCORE.INTER.norm>
-1.25127

>  <SCORE.INTRA>
0

>  <SCORE.INTRA.DIHEDRAL>
0

>  <SCORE.INTRA.DIHEDRAL.0>
0

>  <SCORE.INTRA.POLAR>
0

>  <SCORE.INTRA.POLAR.0>
0

>  <SCORE.INTRA.REPUL>
0

>  <SCORE.INTRA.REPUL.0>
0

>  <SCORE.INTRA.SOLV>
0

>  <SCORE.INTRA.SOLV.lig_0>
-48.1583

>  <SCORE.INTRA.VDW>
0

>  <SCORE.INTRA.VDW.0>
0

>  <SCORE.INTRA.norm>
0

>  <SCORE.RESTR>
0

>  <SCORE.RESTR.CAVITY>
0

>  <SCORE.RESTR.norm>
0

>  <SCORE.SYSTEM>
0

>  <SCORE.SYSTEM.CONST>
0

>  <SCORE.SYSTEM.DIHEDRAL>
0

>  <SCORE.SYSTEM.SOLV>
0

>  <SCORE.SYSTEM.norm>
0

>  <SCORE.heavy>
12

>  <SCORE.norm>
-1.25127

>  <RMSD>
3.050

$$$$
ligand
 OpenBabel11021811503D
libRbt.so/2013.1/901 2013/11/27
 12 13  0  0  0  0  0  0  0  0999 V2000
    4.6679   15.4583    3.9542 C   0  0  0  0  0  0  0  0  0  0  0  0
    6.0393   17.0613    2.9621 C   0  0  0  0  0  0  0  0  0  0  0  0
    3.9826   14.3232    3.8508 N   0  0  0  0  0  0  0  0  0  0  0  0
    6.6931   17.5760    1.9148 N   0  0  0  0  0  0  0  0  0  0  0  0
    5.3226   15.9331    2.8720 N   0  0  0  0  0  0  0  0  0  0  0  0
    4.7212   16.1018    5.1415 N   0  0  0  0  0  0  0  0  0  0  0  0
    6.8763   19.6147    5.5012 N   0  0  0  0  0  0  0  0  0  0  0  0
    6.1880   19.0882    6.6051 C   0  0  0  0  0  0  0  0  0  0  0  0
    5.4458   17.8917    6.4706 N   0  0  0  0  0  0  0  0  0  0  0  0
    5.4243   17.2533    5.2806 C   0  0  0  0  0  0  0  0  0  0  0  0
    6.1143   17.7588    4.1740 C   0  0  0  0  0  0  0  0  0  0  0  0
    6.8472   18.9408    4.2643 C   0  0  0  0  0  0  0  0  0  0  0  0
  1  3  1  0  0  0  0
  1  5  1  0  0  0  0
  1  6  2  0  0  0  0
  2  5  2  0  0  0  0
  2 11  1  0  0  0  0
  2  4  1  0  0  0  0
  6 10  1  0  0  0  0
  7  8  2  0  0  0  0
  7 12  1  0  0  0  0
  8  9  1  0  0  0  0
  9 10  2  0  0  0  0
 10 11  1  0  0  0  0
 11 12  2  0  0  0  0
M  END
>  <CHROM.1>
5.67924227,17.22375953,4.40642198,2.25185879,-0.94525072,-2.02710414

>  <Name>
ligand

>  <RI>
0

>  <Rbt.Current_Directory>
/home/itssahil/PROJECTS/Mol_Feturizer/New_Systems/rnas/4LX5

>  <Rbt.Executable>
rbdock ($Id: //depot/dev/client3/rdock/2013.1/src/exe/rbdock.cxx#4 $)

>  <Rbt.Library>
libRbt.so (2013.1, Build901 2013/11/27)

>  <Rbt.Parameter_File>
/export/apps/rDock/src/rDock_2013.1_src/data/scripts/dock_solv.prm

>  <Rbt.Receptor>
prm/pocket_docking_6.prm

>  <SCORE>
-15.0137

>  <SCORE.INTER>
-15.0137

>  <SCORE.INTER.CONST>
1

>  <SCORE.INTER.POLAR>
0

>  <SCORE.INTER.ROT>
0

>  <SCORE.INTER.SOLV>
15.4726

>  <SCORE.INTER.VDW>
-18.7667

>  <SCORE.INTER.norm>
-1.25114

>  <SCORE.INTRA>
0

>  <SCORE.INTRA.DIHEDRAL>
0

>  <SCORE.INTRA.DIHEDRAL.0>
0

>  <SCORE.INTRA.POLAR>
0

>  <SCORE.INTRA.POLAR.0>
0

>  <SCORE.INTRA.REPUL>
0

>  <SCORE.INTRA.REPUL.0>
0

>  <SCORE.INTRA.SOLV>
0

>  <SCORE.INTRA.SOLV.lig_0>
-48.1583

>  <SCORE.INTRA.VDW>
0

>  <SCORE.INTRA.VDW.0>
0

>  <SCORE.INTRA.norm>
0

>  <SCORE.RESTR>
0

>  <SCORE.RESTR.CAVITY>
0

>  <SCORE.RESTR.norm>
0

>  <SCORE.SYSTEM>
0

>  <SCORE.SYSTEM.CONST>
0

>  <SCORE.SYSTEM.DIHEDRAL>
0

>  <SCORE.SYSTEM.SOLV>
0

>  <SCORE.SYSTEM.norm>
0

>  <SCORE.heavy>
12

>  <SCORE.norm>
-1.25114

>  <RMSD>
3.050

$$$$
ligand
 OpenBabel11021811503D
libRbt.so/2013.1/901 2013/11/27
 12 13  0  0  0  0  0  0  0  0999 V2000
    4.6870   15.4570    3.9699 C   0  0  0  0  0  0  0  0  0  0  0  0
    6.0415   17.0619    2.9577 C   0  0  0  0  0  0  0  0  0  0  0  0
    4.0090   14.3164    3.8791 N   0  0  0  0  0  0  0  0  0  0  0  0
    6.6858   17.5729    1.9029 N   0  0  0  0  0  0  0  0  0  0  0  0
    5.3323   15.9280    2.8804 N   0  0  0  0  0  0  0  0  0  0  0  0
    4.7423   16.1100    5.1519 N   0  0  0  0  0  0  0  0  0  0  0  0
    6.8747   19.6406    5.4724 N   0  0  0  0  0  0  0  0  0  0  0  0
    6.1963   19.1179    6.5841 C   0  0  0  0  0  0  0  0  0  0  0  0
    5.4618   17.9152    6.4630 N   0  0  0  0  0  0  0  0  0  0  0  0
    5.4382   17.2675    5.2781 C   0  0  0  0  0  0  0  0  0  0  0  0
    6.1184   17.7692    4.1638 C   0  0  0  0  0  0  0  0  0  0  0  0
    6.8434   18.9569    4.2408 C   0  0  0  0  0  0  0  0  0  0  0  0
  1  3  1  0  0  0  0
  1  5  1  0  0  0  0
  1  6  2  0  0  0  0
  2  5  2  0  0  0  0
  2 11  1  0  0  0  0
  2  4  1  0  0  0  0
  6 10  1  0  0  0  0
  7  8  2  0  0  0  0
  7 12  1  0  0  0  0
  8  9  1  0  0  0  0
  9 10  2  0  0  0  0
 10 11  1  0  0  0  0
 11 12  2  0  0  0  0
M  END
>  <CHROM.1>
5.68837479,17.23296103,4.40277027,2.25517769,-0.95400485,-2.03212854

>  <Name>
ligand

>  <RI>
0

>  <Rbt.Current_Directory>
/home/itssahil/PROJECTS/Mol_Feturizer/New_Systems/rnas/4LX5

>  <Rbt.Executable>
rbdock ($Id: //depot/dev/client3/rdock/2013.1/src/exe/rbdock.cxx#4 $)

>  <Rbt.Library>
libRbt.so (2013.1, Build901 2013/11/27)

>  <Rbt.Parameter_File>
/export/apps/rDock/src/rDock_2013.1_src/data/scripts/dock_solv.prm

>  <Rbt.Receptor>
prm/pocket_docking_7.prm

>  <SCORE>
-15.0379

>  <SCORE.INTER>
-15.0379

>  <SCORE.INTER.CONST>
1

>  <SCORE.INTER.POLAR>
0

>  <SCORE.INTER.ROT>
0

>  <SCORE.INTER.SOLV>
15.6352

>  <SCORE.INTER.VDW>
-18.837

>  <SCORE.INTER.norm>
-1.25316

>  <SCORE.INTRA>
0

>  <SCORE.INTRA.DIHEDRAL>
0

>  <SCORE.INTRA.DIHEDRAL.0>
0

>  <SCORE.INTRA.POLAR>
0

>  <SCORE.INTRA.POLAR.0>
0

>  <SCORE.INTRA.REPUL>
0

>  <SCORE.INTRA.REPUL.0>
0

>  <SCORE.INTRA.SOLV>
0

>  <SCORE.INTRA.SOLV.lig_0>
-48.1583

>  <SCORE.INTRA.VDW>
0

>  <SCORE.INTRA.VDW.0>
0

>  <SCORE.INTRA.norm>
0

>  <SCORE.RESTR>
0

>  <SCORE.RESTR.CAVITY>
0

>  <SCORE.RESTR.norm>
0

>  <SCORE.SYSTEM>
0

>  <SCORE.SYSTEM.CONST>
0

>  <SCORE.SYSTEM.DIHEDRAL>
0

>  <SCORE.SYSTEM.SOLV>
0

>  <SCORE.SYSTEM.norm>
0

>  <SCORE.heavy>
12

>  <SCORE.norm>
-1.25316

>  <RMSD>
3.050

$$$$
ligand
 OpenBabel11021811503D
libRbt.so/2013.1/901 2013/11/27
 12 13  0  0  0  0  0  0  0  0999 V2000
    4.6717   15.3918    3.9539 C   0  0  0  0  0  0  0  0  0  0  0  0
    6.0068   17.0155    2.9459 C   0  0  0  0  0  0  0  0  0  0  0  0
    4.0016   14.2470    3.8582 N   0  0  0  0  0  0  0  0  0  0  0  0
    6.6396   17.5404    1.8909 N   0  0  0  0  0  0  0  0  0  0  0  0
    5.3055   15.8770    2.8639 N   0  0  0  0  0  0  0  0  0  0  0  0
    4.7308   16.0351    5.1411 N   0  0  0  0  0  0  0  0  0  0  0  0
    6.8391   19.5787    5.4766 N   0  0  0  0  0  0  0  0  0  0  0  0
    6.1727   19.0414    6.5887 C   0  0  0  0  0  0  0  0  0  0  0  0
    5.4464   17.8342    6.4625 N   0  0  0  0  0  0  0  0  0  0  0  0
    5.4189   17.1966    5.2723 C   0  0  0  0  0  0  0  0  0  0  0  0
    6.0872   17.7130    4.1575 C   0  0  0  0  0  0  0  0  0  0  0  0
    6.8039   18.9054    4.2395 C   0  0  0  0  0  0  0  0  0  0  0  0
  1  3  1  0  0  0  0
  1  5  1  0  0  0  0
  1  6  2  0  0  0  0
  2  5  2  0  0  0  0
  2 11  1  0  0  0  0
  2  4  1  0  0  0  0
  6 10  1  0  0  0  0
  7  8  2  0  0  0  0
  7 12  1  0  0  0  0
  8  9  1  0  0  0  0
  9 10  2  0  0  0  0
 10 11  1  0  0  0  0
 11 12  2  0  0  0  0
M  END
>  <CHROM.1>
5.66297578,17.17147136,4.39487918,2.26082156,-0.96392431,-2.01888911

>  <Name>
ligand

>  <RI>
0

>  <Rbt.Current_Directory>
/home/itssahil/PROJECTS/Mol_Feturizer/New_Systems/rnas/4LX5

>  <Rbt.Executable>
rbdock ($Id: //depot/dev/client3/rdock/2013.1/src/exe/rbdock.cxx#4 $)

>  <Rbt.Library>
libRbt.so (2013.1, Build901 2013/11/27)

>  <Rbt.Parameter_File>
/export/apps/rDock/src/rDock_2013.1_src/data/scripts/dock_solv.prm

>  <Rbt.Receptor>
prm/blind_docking_60.prm

>  <SCORE>
-15.0333

>  <SCORE.INTER>
-15.0333

>  <SCORE.INTER.CONST>
1

>  <SCORE.INTER.POLAR>
0

>  <SCORE.INTER.ROT>
0

>  <SCORE.INTER.SOLV>
15.5377

>  <SCORE.INTER.VDW>
-18.8014

>  <SCORE.INTER.norm>
-1.25277

>  <SCORE.INTRA>
0

>  <SCORE.INTRA.DIHEDRAL>
0

>  <SCORE.INTRA.DIHEDRAL.0>
0

>  <SCORE.INTRA.POLAR>
0

>  <SCORE.INTRA.POLAR.0>
0

>  <SCORE.INTRA.REPUL>
0

>  <SCORE.INTRA.REPUL.0>
0

>  <SCORE.INTRA.SOLV>
0

>  <SCORE.INTRA.SOLV.lig_0>
-48.1583

>  <SCORE.INTRA.VDW>
0

>  <SCORE.INTRA.VDW.0>
0

>  <SCORE.INTRA.norm>
0

>  <SCORE.RESTR>
0

>  <SCORE.RESTR.CAVITY>
0

>  <SCORE.RESTR.norm>
0

>  <SCORE.SYSTEM>
0

>  <SCORE.SYSTEM.CONST>
0

>  <SCORE.SYSTEM.DIHEDRAL>
0

>  <SCORE.SYSTEM.SOLV>
0

>  <SCORE.SYSTEM.norm>
0

>  <SCORE.heavy>
12

>  <SCORE.norm>
-1.25277

>  <RMSD>
3.051

$$$$
ligand
 OpenBabel11021811503D
libRbt.so/2013.1/901 2013/11/27
 12 13  0  0  0  0  0  0  0  0999 V2000
    4.6828   15.4598    3.9714 C   0  0  0  0  0  0  0  0  0  0  0  0
    6.0382   17.0642    2.9596 C   0  0  0  0  0  0  0  0  0  0  0  0
    4.0036   14.3200    3.8801 N   0  0  0  0  0  0  0  0  0  0  0  0
    6.6822   17.5755    1.9047 N   0  0  0  0  0  0  0  0  0  0  0  0
    5.3277   15.9312    2.8818 N   0  0  0  0  0  0  0  0  0  0  0  0
    4.7397   16.1118    5.1539 N   0  0  0  0  0  0  0  0  0  0  0  0
    6.8760   19.6399    5.4759 N   0  0  0  0  0  0  0  0  0  0  0  0
    6.1978   19.1169    6.5877 C   0  0  0  0  0  0  0  0  0  0  0  0
    5.4620   17.9150    6.4661 N   0  0  0  0  0  0  0  0  0  0  0  0
    5.4368   17.2684    5.2806 C   0  0  0  0  0  0  0  0  0  0  0  0
    6.1167   17.7704    4.1663 C   0  0  0  0  0  0  0  0  0  0  0  0
    6.8430   18.9573    4.2437 C   0  0  0  0  0  0  0  0  0  0  0  0
  1  3  1  0  0  0  0
  1  5  1  0  0  0  0
  1  6  2  0  0  0  0
  2  5  2  0  0  0  0
  2 11  1  0  0  0  0
  2  4  1  0  0  0  0
  6 10  1  0  0  0  0
  7  8  2  0  0  0  0
  7 12  1  0  0  0  0
  8  9  1  0  0  0  0
  9 10  2  0  0  0  0
 10 11  1  0  0  0  0
 11 12  2  0  0  0  0
M  END
>  <CHROM.1>
5.68633224,17.23437990,4.40506566,2.25714580,-0.95342247,-2.02964393

>  <Name>
ligand

>  <RI>
0

>  <Rbt.Current_Directory>
/home/itssahil/PROJECTS/Mol_Feturizer/New_Systems/rnas/4LX5

>  <Rbt.Executable>
rbdock ($Id: //depot/dev/client3/rdock/2013.1/src/exe/rbdock.cxx#4 $)

>  <Rbt.Library>
libRbt.so (2013.1, Build901 2013/11/27)

>  <Rbt.Parameter_File>
/export/apps/rDock/src/rDock_2013.1_src/data/scripts/dock_solv.prm

>  <Rbt.Receptor>
prm/pocket_docking_3.prm

>  <SCORE>
-15.0384

>  <SCORE.INTER>
-15.0384

>  <SCORE.INTER.CONST>
1

>  <SCORE.INTER.POLAR>
0

>  <SCORE.INTER.ROT>
0

>  <SCORE.INTER.SOLV>
15.601

>  <SCORE.INTER.VDW>
-18.8259

>  <SCORE.INTER.norm>
-1.2532

>  <SCORE.INTRA>
0

>  <SCORE.INTRA.DIHEDRAL>
0

>  <SCORE.INTRA.DIHEDRAL.0>
0

>  <SCORE.INTRA.POLAR>
0

>  <SCORE.INTRA.POLAR.0>
0

>  <SCORE.INTRA.REPUL>
0

>  <SCORE.INTRA.REPUL.0>
0

>  <SCORE.INTRA.SOLV>
0

>  <SCORE.INTRA.SOLV.lig_0>
-48.1583

>  <SCORE.INTRA.VDW>
0

>  <SCORE.INTRA.VDW.0>
0

>  <SCORE.INTRA.norm>
0

>  <SCORE.RESTR>
0

>  <SCORE.RESTR.CAVITY>
0

>  <SCORE.RESTR.norm>
0

>  <SCORE.SYSTEM>
0

>  <SCORE.SYSTEM.CONST>
0

>  <SCORE.SYSTEM.DIHEDRAL>
0

>  <SCORE.SYSTEM.SOLV>
0

>  <SCORE.SYSTEM.norm>
0

>  <SCORE.heavy>
12

>  <SCORE.norm>
-1.2532

>  <RMSD>
3.051

$$$$
ligand
 OpenBabel11021811503D
libRbt.so/2013.1/901 2013/11/27
 12 13  0  0  0  0  0  0  0  0999 V2000
    4.6938   15.4575    3.9761 C   0  0  0  0  0  0  0  0  0  0  0  0
    6.0398   17.0659    2.9581 C   0  0  0  0  0  0  0  0  0  0  0  0
    4.0164   14.3163    3.8875 N   0  0  0  0  0  0  0  0  0  0  0  0
    6.6763   17.5799    1.9000 N   0  0  0  0  0  0  0  0  0  0  0  0
    5.3311   15.9315    2.8832 N   0  0  0  0  0  0  0  0  0  0  0  0
    4.7566   16.1080    5.1591 N   0  0  0  0  0  0  0  0  0  0  0  0
    6.8876   19.6400    5.4726 N   0  0  0  0  0  0  0  0  0  0  0  0
    6.2174   19.1142    6.5878 C   0  0  0  0  0  0  0  0  0  0  0  0
    5.4833   17.9110    6.4692 N   0  0  0  0  0  0  0  0  0  0  0  0
    5.4522   17.2659    5.2831 C   0  0  0  0  0  0  0  0  0  0  0  0
    6.1242   17.7707    4.1652 C   0  0  0  0  0  0  0  0  0  0  0  0
    6.8485   18.9590    4.2398 C   0  0  0  0  0  0  0  0  0  0  0  0
  1  3  1  0  0  0  0
  1  5  1  0  0  0  0
  1  6  2  0  0  0  0
  2  5  2  0  0  0  0
  2 11  1  0  0  0  0
  2  4  1  0  0  0  0
  6 10  1  0  0  0  0
  7  8  2  0  0  0  0
  7 12  1  0  0  0  0
  8  9  1  0  0  0  0
  9 10  2  0  0  0  0
 10 11  1  0  0  0  0
 11 12  2  0  0  0  0
M  END
>  <CHROM.1>
5.69637438,17.23348816,4.40593532,2.26512095,-0.95794531,-2.02183948

>  <Name>
ligand

>  <RI>
0

>  <Rbt.Current_Directory>
/home/itssahil/PROJECTS/Mol_Feturizer/New_Systems/rnas/4LX5

>  <Rbt.Executable>
rbdock ($Id: //depot/dev/client3/rdock/2013.1/src/exe/rbdock.cxx#4 $)

>  <Rbt.Library>
libRbt.so (2013.1, Build901 2013/11/27)

>  <Rbt.Parameter_File>
/export/apps/rDock/src/rDock_2013.1_src/data/scripts/dock_solv.prm

>  <Rbt.Receptor>
prm/pocket_docking_4.prm

>  <SCORE>
-15.0421

>  <SCORE.INTER>
-15.0421

>  <SCORE.INTER.CONST>
1

>  <SCORE.INTER.POLAR>
0

>  <SCORE.INTER.ROT>
0

>  <SCORE.INTER.SOLV>
15.6635

>  <SCORE.INTER.VDW>
-18.8492

>  <SCORE.INTER.norm>
-1.25351

>  <SCORE.INTRA>
0

>  <SCORE.INTRA.DIHEDRAL>
0

>  <SCORE.INTRA.DIHEDRAL.0>
0

>  <SCORE.INTRA.POLAR>
0

>  <SCORE.INTRA.POLAR.0>
0

>  <SCORE.INTRA.REPUL>
0

>  <SCORE.INTRA.REPUL.0>
0

>  <SCORE.INTRA.SOLV>
0

>  <SCORE.INTRA.SOLV.lig_0>
-48.1583

>  <SCORE.INTRA.VDW>
0

>  <SCORE.INTRA.VDW.0>
0

>  <SCORE.INTRA.norm>
0

>  <SCORE.RESTR>
0

>  <SCORE.RESTR.CAVITY>
0

>  <SCORE.RESTR.norm>
0

>  <SCORE.SYSTEM>
0

>  <SCORE.SYSTEM.CONST>
0

>  <SCORE.SYSTEM.DIHEDRAL>
0

>  <SCORE.SYSTEM.SOLV>
0

>  <SCORE.SYSTEM.norm>
0

>  <SCORE.heavy>
12

>  <SCORE.norm>
-1.25351

>  <RMSD>
3.051

$$$$
ligand
 OpenBabel11021811503D
libRbt.so/2013.1/901 2013/11/27
 12 13  0  0  0  0  0  0  0  0999 V2000
    4.4530   15.2762    3.8354 C   0  0  0  0  0  0  0  0  0  0  0  0
    5.6842   16.9414    2.7648 C   0  0  0  0  0  0  0  0  0  0  0  0
    3.7668   14.1394    3.7599 N   0  0  0  0  0  0  0  0  0  0  0  0
    6.2028   17.5136    1.6727 N   0  0  0  0  0  0  0  0  0  0  0  0
    4.9685   15.8104    2.7066 N   0  0  0  0  0  0  0  0  0  0  0  0
    4.6464   15.8623    5.0378 N   0  0  0  0  0  0  0  0  0  0  0  0
    6.8085   19.3791    5.3067 N   0  0  0  0  0  0  0  0  0  0  0  0
    6.2625   18.7918    6.4584 C   0  0  0  0  0  0  0  0  0  0  0  0
    5.5166   17.5944    6.3560 N   0  0  0  0  0  0  0  0  0  0  0  0
    5.3544   17.0141    5.1473 C   0  0  0  0  0  0  0  0  0  0  0  0
    5.9018   17.5804    3.9916 C   0  0  0  0  0  0  0  0  0  0  0  0
    6.6332   18.7653    4.0506 C   0  0  0  0  0  0  0  0  0  0  0  0
  1  3  1  0  0  0  0
  1  5  1  0  0  0  0
  1  6  2  0  0  0  0
  2  5  2  0  0  0  0
  2 11  1  0  0  0  0
  2  4  1  0  0  0  0
  6 10  1  0  0  0  0
  7  8  2  0  0  0  0
  7 12  1  0  0  0  0
  8  9  1  0  0  0  0
  9 10  2  0  0  0  0
 10 11  1  0  0  0  0
 11 12  2  0  0  0  0
M  END
>  <CHROM.1>
5.50134777,17.02968610,4.24830872,2.44889355,-0.99557289,-1.81533767

>  <Name>
ligand

>  <RI>
0

>  <Rbt.Current_Directory>
/home/itssahil/PROJECTS/Mol_Feturizer/New_Systems/rnas/4LX5

>  <Rbt.Executable>
rbdock ($Id: //depot/dev/client3/rdock/2013.1/src/exe/rbdock.cxx#4 $)

>  <Rbt.Library>
libRbt.so (2013.1, Build901 2013/11/27)

>  <Rbt.Parameter_File>
/export/apps/rDock/src/rDock_2013.1_src/data/scripts/dock_solv.prm

>  <Rbt.Receptor>
prm/pocket_docking_4.prm

>  <SCORE>
-14.438

>  <SCORE.INTER>
-14.438

>  <SCORE.INTER.CONST>
1

>  <SCORE.INTER.POLAR>
0

>  <SCORE.INTER.ROT>
0

>  <SCORE.INTER.SOLV>
14.362

>  <SCORE.INTER.VDW>
-18.0127

>  <SCORE.INTER.norm>
-1.20317

>  <SCORE.INTRA>
0

>  <SCORE.INTRA.DIHEDRAL>
0

>  <SCORE.INTRA.DIHEDRAL.0>
0

>  <SCORE.INTRA.POLAR>
0

>  <SCORE.INTRA.POLAR.0>
0

>  <SCORE.INTRA.REPUL>
0

>  <SCORE.INTRA.REPUL.0>
0

>  <SCORE.INTRA.SOLV>
0

>  <SCORE.INTRA.SOLV.lig_0>
-48.1583

>  <SCORE.INTRA.VDW>
0

>  <SCORE.INTRA.VDW.0>
0

>  <SCORE.INTRA.norm>
0

>  <SCORE.RESTR>
0

>  <SCORE.RESTR.CAVITY>
0

>  <SCORE.RESTR.norm>
0

>  <SCORE.SYSTEM>
0

>  <SCORE.SYSTEM.CONST>
0

>  <SCORE.SYSTEM.DIHEDRAL>
0

>  <SCORE.SYSTEM.SOLV>
0

>  <SCORE.SYSTEM.norm>
0

>  <SCORE.heavy>
12

>  <SCORE.norm>
-1.20317

>  <RMSD>
3.051

$$$$
ligand
 OpenBabel11021811503D
libRbt.so/2013.1/901 2013/11/27
 12 13  0  0  0  0  0  0  0  0999 V2000
    4.6813   15.4666    3.9632 C   0  0  0  0  0  0  0  0  0  0  0  0
    6.0800   17.0474    2.9734 C   0  0  0  0  0  0  0  0  0  0  0  0
    3.9891   14.3353    3.8629 N   0  0  0  0  0  0  0  0  0  0  0  0
    6.7538   17.5444    1.9304 N   0  0  0  0  0  0  0  0  0  0  0  0
    5.3563   15.9234    2.8858 N   0  0  0  0  0  0  0  0  0  0  0  0
    4.7209   16.1241    5.1434 N   0  0  0  0  0  0  0  0  0  0  0  0
    6.8965   19.6253    5.4944 N   0  0  0  0  0  0  0  0  0  0  0  0
    6.1872   19.1173    6.5936 C   0  0  0  0  0  0  0  0  0  0  0  0
    5.4382   17.9247    6.4620 N   0  0  0  0  0  0  0  0  0  0  0  0
    5.4304   17.2721    5.2796 C   0  0  0  0  0  0  0  0  0  0  0  0
    6.1413   17.7590    4.1779 C   0  0  0  0  0  0  0  0  0  0  0  0
    6.8816   18.9365    4.2653 C   0  0  0  0  0  0  0  0  0  0  0  0
  1  3  1  0  0  0  0
  1  5  1  0  0  0  0
  1  6  2  0  0  0  0
  2  5  2  0  0  0  0
  2 11  1  0  0  0  0
  2  4  1  0  0  0  0
  6 10  1  0  0  0  0
  7  8  2  0  0  0  0
  7 12  1  0  0  0  0
  8  9  1  0  0  0  0
  9 10  2  0  0  0  0
 10 11  1  0  0  0  0
 11 12  2  0  0  0  0
M  END
>  <CHROM.1>
5.69868112,17.22998048,4.40990667,2.23401542,-0.93157536,-2.05361422

>  <Name>
ligand

>  <RI>
0

>  <Rbt.Current_Directory>
/home/itssahil/PROJECTS/Mol_Feturizer/New_Systems/rnas/4LX5

>  <Rbt.Executable>
rbdock ($Id: //depot/dev/client3/rdock/2013.1/src/exe/rbdock.cxx#4 $)

>  <Rbt.Library>
libRbt.so (2013.1, Build901 2013/11/27)

>  <Rbt.Parameter_File>
/export/apps/rDock/src/rDock_2013.1_src/data/scripts/dock_solv.prm

>  <Rbt.Receptor>
prm/pocket_docking_5.prm

>  <SCORE>
-15

>  <SCORE.INTER>
-15

>  <SCORE.INTER.CONST>
1

>  <SCORE.INTER.POLAR>
0

>  <SCORE.INTER.ROT>
0

>  <SCORE.INTER.SOLV>
15.5809

>  <SCORE.INTER.VDW>
-18.7936

>  <SCORE.INTER.norm>
-1.25

>  <SCORE.INTRA>
0

>  <SCORE.INTRA.DIHEDRAL>
0

>  <SCORE.INTRA.DIHEDRAL.0>
0

>  <SCORE.INTRA.POLAR>
0

>  <SCORE.INTRA.POLAR.0>
0

>  <SCORE.INTRA.REPUL>
0

>  <SCORE.INTRA.REPUL.0>
0

>  <SCORE.INTRA.SOLV>
0

>  <SCORE.INTRA.SOLV.lig_0>
-48.1583

>  <SCORE.INTRA.VDW>
0

>  <SCORE.INTRA.VDW.0>
0

>  <SCORE.INTRA.norm>
0

>  <SCORE.RESTR>
0

>  <SCORE.RESTR.CAVITY>
0

>  <SCORE.RESTR.norm>
0

>  <SCORE.SYSTEM>
0

>  <SCORE.SYSTEM.CONST>
0

>  <SCORE.SYSTEM.DIHEDRAL>
0

>  <SCORE.SYSTEM.SOLV>
0

>  <SCORE.SYSTEM.norm>
0

>  <SCORE.heavy>
12

>  <SCORE.norm>
-1.25

>  <RMSD>
3.051

$$$$
ligand
 OpenBabel11021811503D
libRbt.so/2013.1/901 2013/11/27
 12 13  0  0  0  0  0  0  0  0999 V2000
    4.6636   15.4864    3.9674 C   0  0  0  0  0  0  0  0  0  0  0  0
    6.0335   17.0801    2.9583 C   0  0  0  0  0  0  0  0  0  0  0  0
    3.9705   14.3552    3.8730 N   0  0  0  0  0  0  0  0  0  0  0  0
    6.6790   17.5894    1.9033 N   0  0  0  0  0  0  0  0  0  0  0  0
    5.3093   15.9559    2.8775 N   0  0  0  0  0  0  0  0  0  0  0  0
    4.7333   16.1312    5.1531 N   0  0  0  0  0  0  0  0  0  0  0  0
    6.9126   19.6321    5.4845 N   0  0  0  0  0  0  0  0  0  0  0  0
    6.2331   19.1111    6.5965 C   0  0  0  0  0  0  0  0  0  0  0  0
    5.4826   17.9187    6.4717 N   0  0  0  0  0  0  0  0  0  0  0  0
    5.4446   17.2789    5.2830 C   0  0  0  0  0  0  0  0  0  0  0  0
    6.1256   17.7788    4.1683 C   0  0  0  0  0  0  0  0  0  0  0  0
    6.8663   18.9566    4.2489 C   0  0  0  0  0  0  0  0  0  0  0  0
  1  3  1  0  0  0  0
  1  5  1  0  0  0  0
  1  6  2  0  0  0  0
  2  5  2  0  0  0  0
  2 11  1  0  0  0  0
  2  4  1  0  0  0  0
  6 10  1  0  0  0  0
  7  8  2  0  0  0  0
  7 12  1  0  0  0  0
  8  9  1  0  0  0  0
  9 10  2  0  0  0  0
 10 11  1  0  0  0  0
 11 12  2  0  0  0  0
M  END
>  <CHROM.1>
5.68994624,17.24659532,4.40613707,2.27271079,-0.94465478,-2.01162446

>  <Name>
ligand

>  <RI>
0

>  <Rbt.Current_Directory>
/home/itssahil/PROJECTS/Mol_Feturizer/New_Systems/rnas/4LX5

>  <Rbt.Executable>
rbdock ($Id: //depot/dev/client3/rdock/2013.1/src/exe/rbdock.cxx#4 $)

>  <Rbt.Library>
libRbt.so (2013.1, Build901 2013/11/27)

>  <Rbt.Parameter_File>
/export/apps/rDock/src/rDock_2013.1_src/data/scripts/dock_solv.prm

>  <Rbt.Receptor>
prm/pocket_docking_6.prm

>  <SCORE>
-15.0759

>  <SCORE.INTER>
-15.0759

>  <SCORE.INTER.CONST>
1

>  <SCORE.INTER.POLAR>
0

>  <SCORE.INTER.ROT>
0

>  <SCORE.INTER.SOLV>
15.4081

>  <SCORE.INTER.VDW>
-18.7866

>  <SCORE.INTER.norm>
-1.25632

>  <SCORE.INTRA>
0

>  <SCORE.INTRA.DIHEDRAL>
0

>  <SCORE.INTRA.DIHEDRAL.0>
0

>  <SCORE.INTRA.POLAR>
0

>  <SCORE.INTRA.POLAR.0>
0

>  <SCORE.INTRA.REPUL>
0

>  <SCORE.INTRA.REPUL.0>
0

>  <SCORE.INTRA.SOLV>
0

>  <SCORE.INTRA.SOLV.lig_0>
-48.1583

>  <SCORE.INTRA.VDW>
0

>  <SCORE.INTRA.VDW.0>
0

>  <SCORE.INTRA.norm>
0

>  <SCORE.RESTR>
0

>  <SCORE.RESTR.CAVITY>
0

>  <SCORE.RESTR.norm>
0

>  <SCORE.SYSTEM>
0

>  <SCORE.SYSTEM.CONST>
0

>  <SCORE.SYSTEM.DIHEDRAL>
0

>  <SCORE.SYSTEM.SOLV>
0

>  <SCORE.SYSTEM.norm>
0

>  <SCORE.heavy>
12

>  <SCORE.norm>
-1.25632

>  <RMSD>
3.051

$$$$
ligand
 OpenBabel11021811503D
libRbt.so/2013.1/901 2013/11/27
 12 13  0  0  0  0  0  0  0  0999 V2000
    4.6681   15.4531    3.9638 C   0  0  0  0  0  0  0  0  0  0  0  0
    6.0437   17.0463    2.9617 C   0  0  0  0  0  0  0  0  0  0  0  0
    3.9766   14.3212    3.8665 N   0  0  0  0  0  0  0  0  0  0  0  0
    6.6958   17.5547    1.9104 N   0  0  0  0  0  0  0  0  0  0  0  0
    5.3208   15.9216    2.8777 N   0  0  0  0  0  0  0  0  0  0  0  0
    4.7294   16.0996    5.1491 N   0  0  0  0  0  0  0  0  0  0  0  0
    6.9038   19.6026    5.4902 N   0  0  0  0  0  0  0  0  0  0  0  0
    6.2173   19.0827    6.5983 C   0  0  0  0  0  0  0  0  0  0  0  0
    5.4685   17.8895    6.4702 N   0  0  0  0  0  0  0  0  0  0  0  0
    5.4390   17.2480    5.2821 C   0  0  0  0  0  0  0  0  0  0  0  0
    6.1270   17.7468    4.1713 C   0  0  0  0  0  0  0  0  0  0  0  0
    6.8663   18.9253    4.2553 C   0  0  0  0  0  0  0  0  0  0  0  0
  1  3  1  0  0  0  0
  1  5  1  0  0  0  0
  1  6  2  0  0  0  0
  2  5  2  0  0  0  0
  2 11  1  0  0  0  0
  2  4  1  0  0  0  0
  6 10  1  0  0  0  0
  7  8  2  0  0  0  0
  7 12  1  0  0  0  0
  8  9  1  0  0  0  0
  9 10  2  0  0  0  0
 10 11  1  0  0  0  0
 11 12  2  0  0  0  0
M  END
>  <CHROM.1>
5.69020805,17.21466079,4.40699904,2.26182340,-0.94242885,-2.02185846

>  <Name>
ligand

>  <RI>
0

>  <Rbt.Current_Directory>
/home/itssahil/PROJECTS/Mol_Feturizer/New_Systems/rnas/4LX5

>  <Rbt.Executable>
rbdock ($Id: //depot/dev/client3/rdock/2013.1/src/exe/rbdock.cxx#4 $)

>  <Rbt.Library>
libRbt.so (2013.1, Build901 2013/11/27)

>  <Rbt.Parameter_File>
/export/apps/rDock/src/rDock_2013.1_src/data/scripts/dock_solv.prm

>  <Rbt.Receptor>
prm/blind_docking_60.prm

>  <SCORE>
-15.0141

>  <SCORE.INTER>
-15.0141

>  <SCORE.INTER.CONST>
1

>  <SCORE.INTER.POLAR>
0

>  <SCORE.INTER.ROT>
0

>  <SCORE.INTER.SOLV>
15.4574

>  <SCORE.INTER.VDW>
-18.7619

>  <SCORE.INTER.norm>
-1.25118

>  <SCORE.INTRA>
0

>  <SCORE.INTRA.DIHEDRAL>
0

>  <SCORE.INTRA.DIHEDRAL.0>
0

>  <SCORE.INTRA.POLAR>
0

>  <SCORE.INTRA.POLAR.0>
0

>  <SCORE.INTRA.REPUL>
0

>  <SCORE.INTRA.REPUL.0>
0

>  <SCORE.INTRA.SOLV>
0

>  <SCORE.INTRA.SOLV.lig_0>
-48.1583

>  <SCORE.INTRA.VDW>
0

>  <SCORE.INTRA.VDW.0>
0

>  <SCORE.INTRA.norm>
0

>  <SCORE.RESTR>
0

>  <SCORE.RESTR.CAVITY>
0

>  <SCORE.RESTR.norm>
0

>  <SCORE.SYSTEM>
0

>  <SCORE.SYSTEM.CONST>
0

>  <SCORE.SYSTEM.DIHEDRAL>
0

>  <SCORE.SYSTEM.SOLV>
0

>  <SCORE.SYSTEM.norm>
0

>  <SCORE.heavy>
12

>  <SCORE.norm>
-1.25118

>  <RMSD>
3.052

$$$$
ligand
 OpenBabel11021811503D
libRbt.so/2013.1/901 2013/11/27
 12 13  0  0  0  0  0  0  0  0999 V2000
    4.6865   15.4605    3.9781 C   0  0  0  0  0  0  0  0  0  0  0  0
    6.0375   17.0635    2.9581 C   0  0  0  0  0  0  0  0  0  0  0  0
    4.0050   14.3217    3.8908 N   0  0  0  0  0  0  0  0  0  0  0  0
    6.6751   17.5745    1.8992 N   0  0  0  0  0  0  0  0  0  0  0  0
    5.3247   15.9315    2.8845 N   0  0  0  0  0  0  0  0  0  0  0  0
    4.7524   16.1116    5.1606 N   0  0  0  0  0  0  0  0  0  0  0  0
    6.8961   19.6363    5.4702 N   0  0  0  0  0  0  0  0  0  0  0  0
    6.2247   19.1136    6.5863 C   0  0  0  0  0  0  0  0  0  0  0  0
    5.4863   17.9130    6.4690 N   0  0  0  0  0  0  0  0  0  0  0  0
    5.4521   17.2672    5.2833 C   0  0  0  0  0  0  0  0  0  0  0  0
    6.1252   17.7688    4.1647 C   0  0  0  0  0  0  0  0  0  0  0  0
    6.8538   18.9545    4.2379 C   0  0  0  0  0  0  0  0  0  0  0  0
  1  3  1  0  0  0  0
  1  5  1  0  0  0  0
  1  6  2  0  0  0  0
  2  5  2  0  0  0  0
  2 11  1  0  0  0  0
  2  4  1  0  0  0  0
  6 10  1  0  0  0  0
  7  8  2  0  0  0  0
  7 12  1  0  0  0  0
  8  9  1  0  0  0  0
  9 10  2  0  0  0  0
 10 11  1  0  0  0  0
 11 12  2  0  0  0  0
M  END
>  <CHROM.1>
5.69562625,17.23326004,4.40605936,2.26881971,-0.95504159,-2.01950704

>  <Name>
ligand

>  <RI>
0

>  <Rbt.Current_Directory>
/home/itssahil/PROJECTS/Mol_Feturizer/New_Systems/rnas/4LX5

>  <Rbt.Executable>
rbdock ($Id: //depot/dev/client3/rdock/2013.1/src/exe/rbdock.cxx#4 $)

>  <Rbt.Library>
libRbt.so (2013.1, Build901 2013/11/27)

>  <Rbt.Parameter_File>
/export/apps/rDock/src/rDock_2013.1_src/data/scripts/dock_solv.prm

>  <Rbt.Receptor>
prm/pocket_docking_4.prm

>  <SCORE>
-15.0406

>  <SCORE.INTER>
-15.0406

>  <SCORE.INTER.CONST>
1

>  <SCORE.INTER.POLAR>
0

>  <SCORE.INTER.ROT>
0

>  <SCORE.INTER.SOLV>
15.6063

>  <SCORE.INTER.VDW>
-18.8292

>  <SCORE.INTER.norm>
-1.25339

>  <SCORE.INTRA>
0

>  <SCORE.INTRA.DIHEDRAL>
0

>  <SCORE.INTRA.DIHEDRAL.0>
0

>  <SCORE.INTRA.POLAR>
0

>  <SCORE.INTRA.POLAR.0>
0

>  <SCORE.INTRA.REPUL>
0

>  <SCORE.INTRA.REPUL.0>
0

>  <SCORE.INTRA.SOLV>
0

>  <SCORE.INTRA.SOLV.lig_0>
-48.1583

>  <SCORE.INTRA.VDW>
0

>  <SCORE.INTRA.VDW.0>
0

>  <SCORE.INTRA.norm>
0

>  <SCORE.RESTR>
0

>  <SCORE.RESTR.CAVITY>
0

>  <SCORE.RESTR.norm>
0

>  <SCORE.SYSTEM>
0

>  <SCORE.SYSTEM.CONST>
0

>  <SCORE.SYSTEM.DIHEDRAL>
0

>  <SCORE.SYSTEM.SOLV>
0

>  <SCORE.SYSTEM.norm>
0

>  <SCORE.heavy>
12

>  <SCORE.norm>
-1.25339

>  <RMSD>
3.052

$$$$
ligand
 OpenBabel11021811503D
libRbt.so/2013.1/901 2013/11/27
 12 13  0  0  0  0  0  0  0  0999 V2000
    4.6843   15.4603    3.9753 C   0  0  0  0  0  0  0  0  0  0  0  0
    6.0415   17.0607    2.9597 C   0  0  0  0  0  0  0  0  0  0  0  0
    4.0020   14.3221    3.8861 N   0  0  0  0  0  0  0  0  0  0  0  0
    6.6844   17.5700    1.9031 N   0  0  0  0  0  0  0  0  0  0  0  0
    5.3279   15.9295    2.8840 N   0  0  0  0  0  0  0  0  0  0  0  0
    4.7456   16.1125    5.1574 N   0  0  0  0  0  0  0  0  0  0  0  0
    6.8915   19.6354    5.4730 N   0  0  0  0  0  0  0  0  0  0  0  0
    6.2146   19.1146    6.5865 C   0  0  0  0  0  0  0  0  0  0  0  0
    5.4755   17.9145    6.4671 N   0  0  0  0  0  0  0  0  0  0  0  0
    5.4459   17.2675    5.2820 C   0  0  0  0  0  0  0  0  0  0  0  0
    6.1245   17.7673    4.1659 C   0  0  0  0  0  0  0  0  0  0  0  0
    6.8540   18.9523    4.2412 C   0  0  0  0  0  0  0  0  0  0  0  0
  1  3  1  0  0  0  0
  1  5  1  0  0  0  0
  1  6  2  0  0  0  0
  2  5  2  0  0  0  0
  2 11  1  0  0  0  0
  2  4  1  0  0  0  0
  6 10  1  0  0  0  0
  7  8  2  0  0  0  0
  7 12  1  0  0  0  0
  8  9  1  0  0  0  0
  9 10  2  0  0  0  0
 10 11  1  0  0  0  0
 11 12  2  0  0  0  0
M  END
>  <CHROM.1>
5.69334152,17.23242062,4.40590882,2.26260264,-0.95214091,-2.02563013

>  <Name>
ligand

>  <RI>
0

>  <Rbt.Current_Directory>
/home/itssahil/PROJECTS/Mol_Feturizer/New_Systems/rnas/4LX5

>  <Rbt.Executable>
rbdock ($Id: //depot/dev/client3/rdock/2013.1/src/exe/rbdock.cxx#4 $)

>  <Rbt.Library>
libRbt.so (2013.1, Build901 2013/11/27)

>  <Rbt.Parameter_File>
/export/apps/rDock/src/rDock_2013.1_src/data/scripts/dock_solv.prm

>  <Rbt.Receptor>
prm/pocket_docking_4.prm

>  <SCORE>
-15.0391

>  <SCORE.INTER>
-15.0391

>  <SCORE.INTER.CONST>
1

>  <SCORE.INTER.POLAR>
0

>  <SCORE.INTER.ROT>
0

>  <SCORE.INTER.SOLV>
15.5978

>  <SCORE.INTER.VDW>
-18.8253

>  <SCORE.INTER.norm>
-1.25326

>  <SCORE.INTRA>
0

>  <SCORE.INTRA.DIHEDRAL>
0

>  <SCORE.INTRA.DIHEDRAL.0>
0

>  <SCORE.INTRA.POLAR>
0

>  <SCORE.INTRA.POLAR.0>
0

>  <SCORE.INTRA.REPUL>
0

>  <SCORE.INTRA.REPUL.0>
0

>  <SCORE.INTRA.SOLV>
0

>  <SCORE.INTRA.SOLV.lig_0>
-48.1583

>  <SCORE.INTRA.VDW>
0

>  <SCORE.INTRA.VDW.0>
0

>  <SCORE.INTRA.norm>
0

>  <SCORE.RESTR>
0

>  <SCORE.RESTR.CAVITY>
0

>  <SCORE.RESTR.norm>
0

>  <SCORE.SYSTEM>
0

>  <SCORE.SYSTEM.CONST>
0

>  <SCORE.SYSTEM.DIHEDRAL>
0

>  <SCORE.SYSTEM.SOLV>
0

>  <SCORE.SYSTEM.norm>
0

>  <SCORE.heavy>
12

>  <SCORE.norm>
-1.25326

>  <RMSD>
3.052

$$$$
ligand
 OpenBabel11021811503D
libRbt.so/2013.1/901 2013/11/27
 12 13  0  0  0  0  0  0  0  0999 V2000
    4.6753   15.4839    3.9746 C   0  0  0  0  0  0  0  0  0  0  0  0
    6.0347   17.0858    2.9642 C   0  0  0  0  0  0  0  0  0  0  0  0
    3.9869   14.3499    3.8802 N   0  0  0  0  0  0  0  0  0  0  0  0
    6.6741   17.6004    1.9081 N   0  0  0  0  0  0  0  0  0  0  0  0
    5.3151   15.9587    2.8835 N   0  0  0  0  0  0  0  0  0  0  0  0
    4.7466   16.1263    5.1615 N   0  0  0  0  0  0  0  0  0  0  0  0
    6.9117   19.6359    5.4931 N   0  0  0  0  0  0  0  0  0  0  0  0
    6.2385   19.1095    6.6063 C   0  0  0  0  0  0  0  0  0  0  0  0
    5.4928   17.9141    6.4815 N   0  0  0  0  0  0  0  0  0  0  0  0
    5.4533   17.2768    5.2915 C   0  0  0  0  0  0  0  0  0  0  0  0
    6.1280   17.7822    4.1755 C   0  0  0  0  0  0  0  0  0  0  0  0
    6.8638   18.9630    4.2562 C   0  0  0  0  0  0  0  0  0  0  0  0
  1  3  1  0  0  0  0
  1  5  1  0  0  0  0
  1  6  2  0  0  0  0
  2  5  2  0  0  0  0
  2 11  1  0  0  0  0
  2  4  1  0  0  0  0
  6 10  1  0  0  0  0
  7  8  2  0  0  0  0
  7 12  1  0  0  0  0
  8  9  1  0  0  0  0
  9 10  2  0  0  0  0
 10 11  1  0  0  0  0
 11 12  2  0  0  0  0
M  END
>  <CHROM.1>
5.69558071,17.24756941,4.41367825,2.27511357,-0.95014362,-2.00739786

>  <Name>
ligand

>  <RI>
0

>  <Rbt.Current_Directory>
/home/itssahil/PROJECTS/Mol_Feturizer/New_Systems/rnas/4LX5

>  <Rbt.Executable>
rbdock ($Id: //depot/dev/client3/rdock/2013.1/src/exe/rbdock.cxx#4 $)

>  <Rbt.Library>
libRbt.so (2013.1, Build901 2013/11/27)

>  <Rbt.Parameter_File>
/export/apps/rDock/src/rDock_2013.1_src/data/scripts/dock_solv.prm

>  <Rbt.Receptor>
prm/pocket_docking_6.prm

>  <SCORE>
-15.0667

>  <SCORE.INTER>
-15.0667

>  <SCORE.INTER.CONST>
1

>  <SCORE.INTER.POLAR>
0

>  <SCORE.INTER.ROT>
0

>  <SCORE.INTER.SOLV>
15.4927

>  <SCORE.INTER.VDW>
-18.8087

>  <SCORE.INTER.norm>
-1.25556

>  <SCORE.INTRA>
0

>  <SCORE.INTRA.DIHEDRAL>
0

>  <SCORE.INTRA.DIHEDRAL.0>
0

>  <SCORE.INTRA.POLAR>
0

>  <SCORE.INTRA.POLAR.0>
0

>  <SCORE.INTRA.REPUL>
0

>  <SCORE.INTRA.REPUL.0>
0

>  <SCORE.INTRA.SOLV>
0

>  <SCORE.INTRA.SOLV.lig_0>
-48.1583

>  <SCORE.INTRA.VDW>
0

>  <SCORE.INTRA.VDW.0>
0

>  <SCORE.INTRA.norm>
0

>  <SCORE.RESTR>
0

>  <SCORE.RESTR.CAVITY>
0

>  <SCORE.RESTR.norm>
0

>  <SCORE.SYSTEM>
0

>  <SCORE.SYSTEM.CONST>
0

>  <SCORE.SYSTEM.DIHEDRAL>
0

>  <SCORE.SYSTEM.SOLV>
0

>  <SCORE.SYSTEM.norm>
0

>  <SCORE.heavy>
12

>  <SCORE.norm>
-1.25556

>  <RMSD>
3.052

$$$$
ligand
 OpenBabel11021811503D
libRbt.so/2013.1/901 2013/11/27
 12 13  0  0  0  0  0  0  0  0999 V2000
    4.6949   15.4489    3.9816 C   0  0  0  0  0  0  0  0  0  0  0  0
    6.0397   17.0568    2.9611 C   0  0  0  0  0  0  0  0  0  0  0  0
    4.0195   14.3065    3.8953 N   0  0  0  0  0  0  0  0  0  0  0  0
    6.6768   17.5689    1.9024 N   0  0  0  0  0  0  0  0  0  0  0  0
    5.3330   15.9210    2.8883 N   0  0  0  0  0  0  0  0  0  0  0  0
    4.7551   16.1028    5.1629 N   0  0  0  0  0  0  0  0  0  0  0  0
    6.8798   19.6392    5.4697 N   0  0  0  0  0  0  0  0  0  0  0  0
    6.2089   19.1153    6.5854 C   0  0  0  0  0  0  0  0  0  0  0  0
    5.4770   17.9106    6.4691 N   0  0  0  0  0  0  0  0  0  0  0  0
    5.4485   17.2622    5.2847 C   0  0  0  0  0  0  0  0  0  0  0  0
    6.1213   17.7650    4.1664 C   0  0  0  0  0  0  0  0  0  0  0  0
    6.8436   18.9547    4.2387 C   0  0  0  0  0  0  0  0  0  0  0  0
  1  3  1  0  0  0  0
  1  5  1  0  0  0  0
  1  6  2  0  0  0  0
  2  5  2  0  0  0  0
  2 11  1  0  0  0  0
  2  4  1  0  0  0  0
  6 10  1  0  0  0  0
  7  8  2  0  0  0  0
  7 12  1  0  0  0  0
  8  9  1  0  0  0  0
  9 10  2  0  0  0  0
 10 11  1  0  0  0  0
 11 12  2  0  0  0  0
M  END
>  <CHROM.1>
5.69400713,17.22777748,4.40799225,2.26169730,-0.95881879,-2.02737746

>  <Name>
ligand

>  <RI>
0

>  <Rbt.Current_Directory>
/home/itssahil/PROJECTS/Mol_Feturizer/New_Systems/rnas/4LX5

>  <Rbt.Executable>
rbdock ($Id: //depot/dev/client3/rdock/2013.1/src/exe/rbdock.cxx#4 $)

>  <Rbt.Library>
libRbt.so (2013.1, Build901 2013/11/27)

>  <Rbt.Parameter_File>
/export/apps/rDock/src/rDock_2013.1_src/data/scripts/dock_solv.prm

>  <Rbt.Receptor>
prm/pocket_docking_4.prm

>  <SCORE>
-15.0403

>  <SCORE.INTER>
-15.0403

>  <SCORE.INTER.CONST>
1

>  <SCORE.INTER.POLAR>
0

>  <SCORE.INTER.ROT>
0

>  <SCORE.INTER.SOLV>
15.6876

>  <SCORE.INTER.VDW>
-18.856

>  <SCORE.INTER.norm>
-1.25336

>  <SCORE.INTRA>
0

>  <SCORE.INTRA.DIHEDRAL>
0

>  <SCORE.INTRA.DIHEDRAL.0>
0

>  <SCORE.INTRA.POLAR>
0

>  <SCORE.INTRA.POLAR.0>
0

>  <SCORE.INTRA.REPUL>
0

>  <SCORE.INTRA.REPUL.0>
0

>  <SCORE.INTRA.SOLV>
0

>  <SCORE.INTRA.SOLV.lig_0>
-48.1583

>  <SCORE.INTRA.VDW>
0

>  <SCORE.INTRA.VDW.0>
0

>  <SCORE.INTRA.norm>
0

>  <SCORE.RESTR>
0

>  <SCORE.RESTR.CAVITY>
0

>  <SCORE.RESTR.norm>
0

>  <SCORE.SYSTEM>
0

>  <SCORE.SYSTEM.CONST>
0

>  <SCORE.SYSTEM.DIHEDRAL>
0

>  <SCORE.SYSTEM.SOLV>
0

>  <SCORE.SYSTEM.norm>
0

>  <SCORE.heavy>
12

>  <SCORE.norm>
-1.25336

>  <RMSD>
3.053

$$$$
ligand
 OpenBabel11021811503D
libRbt.so/2013.1/901 2013/11/27
 12 13  0  0  0  0  0  0  0  0999 V2000
    4.6742   15.4555    3.9679 C   0  0  0  0  0  0  0  0  0  0  0  0
    6.0469   17.0532    2.9690 C   0  0  0  0  0  0  0  0  0  0  0  0
    3.9837   14.3232    3.8679 N   0  0  0  0  0  0  0  0  0  0  0  0
    6.6973   17.5654    1.9184 N   0  0  0  0  0  0  0  0  0  0  0  0
    5.3252   15.9279    2.8824 N   0  0  0  0  0  0  0  0  0  0  0  0
    4.7362   16.0985    5.1550 N   0  0  0  0  0  0  0  0  0  0  0  0
    6.9075   19.6026    5.5042 N   0  0  0  0  0  0  0  0  0  0  0  0
    6.2227   19.0787    6.6116 C   0  0  0  0  0  0  0  0  0  0  0  0
    5.4751   17.8852    6.4807 N   0  0  0  0  0  0  0  0  0  0  0  0
    5.4448   17.2472    5.2907 C   0  0  0  0  0  0  0  0  0  0  0  0
    6.1310   17.7501    4.1806 C   0  0  0  0  0  0  0  0  0  0  0  0
    6.8692   18.9291    4.2673 C   0  0  0  0  0  0  0  0  0  0  0  0
  1  3  1  0  0  0  0
  1  5  1  0  0  0  0
  1  6  2  0  0  0  0
  2  5  2  0  0  0  0
  2 11  1  0  0  0  0
  2  4  1  0  0  0  0
  6 10  1  0  0  0  0
  7  8  2  0  0  0  0
  7 12  1  0  0  0  0
  8  9  1  0  0  0  0
  9 10  2  0  0  0  0
 10 11  1  0  0  0  0
 11 12  2  0  0  0  0
M  END
>  <CHROM.1>
5.69500928,17.21676652,4.41519494,2.26287141,-0.94386792,-2.01797555

>  <Name>
ligand

>  <RI>
0

>  <Rbt.Current_Directory>
/home/itssahil/PROJECTS/Mol_Feturizer/New_Systems/rnas/4LX5

>  <Rbt.Executable>
rbdock ($Id: //depot/dev/client3/rdock/2013.1/src/exe/rbdock.cxx#4 $)

>  <Rbt.Library>
libRbt.so (2013.1, Build901 2013/11/27)

>  <Rbt.Parameter_File>
/export/apps/rDock/src/rDock_2013.1_src/data/scripts/dock_solv.prm

>  <Rbt.Receptor>
prm/pocket_docking_5.prm

>  <SCORE>
-15.0036

>  <SCORE.INTER>
-15.0036

>  <SCORE.INTER.CONST>
1

>  <SCORE.INTER.POLAR>
0

>  <SCORE.INTER.ROT>
0

>  <SCORE.INTER.SOLV>
15.4838

>  <SCORE.INTER.VDW>
-18.7637

>  <SCORE.INTER.norm>
-1.2503

>  <SCORE.INTRA>
0

>  <SCORE.INTRA.DIHEDRAL>
0

>  <SCORE.INTRA.DIHEDRAL.0>
0

>  <SCORE.INTRA.POLAR>
0

>  <SCORE.INTRA.POLAR.0>
0

>  <SCORE.INTRA.REPUL>
0

>  <SCORE.INTRA.REPUL.0>
0

>  <SCORE.INTRA.SOLV>
0

>  <SCORE.INTRA.SOLV.lig_0>
-48.1583

>  <SCORE.INTRA.VDW>
0

>  <SCORE.INTRA.VDW.0>
0

>  <SCORE.INTRA.norm>
0

>  <SCORE.RESTR>
0

>  <SCORE.RESTR.CAVITY>
0

>  <SCORE.RESTR.norm>
0

>  <SCORE.SYSTEM>
0

>  <SCORE.SYSTEM.CONST>
0

>  <SCORE.SYSTEM.DIHEDRAL>
0

>  <SCORE.SYSTEM.SOLV>
0

>  <SCORE.SYSTEM.norm>
0

>  <SCORE.heavy>
12

>  <SCORE.norm>
-1.2503

>  <RMSD>
3.053

$$$$
ligand
 OpenBabel11021811503D
libRbt.so/2013.1/901 2013/11/27
 12 13  0  0  0  0  0  0  0  0999 V2000
    4.6936   15.4494    3.9818 C   0  0  0  0  0  0  0  0  0  0  0  0
    6.0388   17.0565    2.9607 C   0  0  0  0  0  0  0  0  0  0  0  0
    4.0176   14.3073    3.8957 N   0  0  0  0  0  0  0  0  0  0  0  0
    6.6758   17.5683    1.9018 N   0  0  0  0  0  0  0  0  0  0  0  0
    5.3315   15.9211    2.8882 N   0  0  0  0  0  0  0  0  0  0  0  0
    4.7545   16.1033    5.1630 N   0  0  0  0  0  0  0  0  0  0  0  0
    6.8812   19.6387    5.4688 N   0  0  0  0  0  0  0  0  0  0  0  0
    6.2104   19.1152    6.5848 C   0  0  0  0  0  0  0  0  0  0  0  0
    5.4778   17.9108    6.4688 N   0  0  0  0  0  0  0  0  0  0  0  0
    5.4486   17.2624    5.2845 C   0  0  0  0  0  0  0  0  0  0  0  0
    6.1212   17.7648    4.1659 C   0  0  0  0  0  0  0  0  0  0  0  0
    6.8441   18.9541    4.2379 C   0  0  0  0  0  0  0  0  0  0  0  0
  1  3  1  0  0  0  0
  1  5  1  0  0  0  0
  1  6  2  0  0  0  0
  2  5  2  0  0  0  0
  2 11  1  0  0  0  0
  2  4  1  0  0  0  0
  6 10  1  0  0  0  0
  7  8  2  0  0  0  0
  7 12  1  0  0  0  0
  8  9  1  0  0  0  0
  9 10  2  0  0  0  0
 10 11  1  0  0  0  0
 11 12  2  0  0  0  0
M  END
>  <CHROM.1>
5.69375784,17.22778479,4.40768825,2.26264492,-0.95851463,-2.02666359

>  <Name>
ligand

>  <RI>
0

>  <Rbt.Current_Directory>
/home/itssahil/PROJECTS/Mol_Feturizer/New_Systems/rnas/4LX5

>  <Rbt.Executable>
rbdock ($Id: //depot/dev/client3/rdock/2013.1/src/exe/rbdock.cxx#4 $)

>  <Rbt.Library>
libRbt.so (2013.1, Build901 2013/11/27)

>  <Rbt.Parameter_File>
/export/apps/rDock/src/rDock_2013.1_src/data/scripts/dock_solv.prm

>  <Rbt.Receptor>
prm/pocket_docking_6.prm

>  <SCORE>
-15.0407

>  <SCORE.INTER>
-15.0407

>  <SCORE.INTER.CONST>
1

>  <SCORE.INTER.POLAR>
0

>  <SCORE.INTER.ROT>
0

>  <SCORE.INTER.SOLV>
15.6775

>  <SCORE.INTER.VDW>
-18.853

>  <SCORE.INTER.norm>
-1.25339

>  <SCORE.INTRA>
0

>  <SCORE.INTRA.DIHEDRAL>
0

>  <SCORE.INTRA.DIHEDRAL.0>
0

>  <SCORE.INTRA.POLAR>
0

>  <SCORE.INTRA.POLAR.0>
0

>  <SCORE.INTRA.REPUL>
0

>  <SCORE.INTRA.REPUL.0>
0

>  <SCORE.INTRA.SOLV>
0

>  <SCORE.INTRA.SOLV.lig_0>
-48.1583

>  <SCORE.INTRA.VDW>
0

>  <SCORE.INTRA.VDW.0>
0

>  <SCORE.INTRA.norm>
0

>  <SCORE.RESTR>
0

>  <SCORE.RESTR.CAVITY>
0

>  <SCORE.RESTR.norm>
0

>  <SCORE.SYSTEM>
0

>  <SCORE.SYSTEM.CONST>
0

>  <SCORE.SYSTEM.DIHEDRAL>
0

>  <SCORE.SYSTEM.SOLV>
0

>  <SCORE.SYSTEM.norm>
0

>  <SCORE.heavy>
12

>  <SCORE.norm>
-1.25339

>  <RMSD>
3.053

$$$$
ligand
 OpenBabel11021811503D
libRbt.so/2013.1/901 2013/11/27
 12 13  0  0  0  0  0  0  0  0999 V2000
    4.6700   15.4733    3.9796 C   0  0  0  0  0  0  0  0  0  0  0  0
    6.0378   17.0651    2.9644 C   0  0  0  0  0  0  0  0  0  0  0  0
    3.9789   14.3406    3.8897 N   0  0  0  0  0  0  0  0  0  0  0  0
    6.6827   17.5711    1.9076 N   0  0  0  0  0  0  0  0  0  0  0  0
    5.3154   15.9394    2.8881 N   0  0  0  0  0  0  0  0  0  0  0  0
    4.7384   16.1231    5.1627 N   0  0  0  0  0  0  0  0  0  0  0  0
    6.9119   19.6288    5.4805 N   0  0  0  0  0  0  0  0  0  0  0  0
    6.2329   19.1113    6.5944 C   0  0  0  0  0  0  0  0  0  0  0  0
    5.4844   17.9172    6.4742 N   0  0  0  0  0  0  0  0  0  0  0  0
    5.4478   17.2725    5.2881 C   0  0  0  0  0  0  0  0  0  0  0  0
    6.1283   17.7689    4.1716 C   0  0  0  0  0  0  0  0  0  0  0  0
    6.8671   18.9482    4.2476 C   0  0  0  0  0  0  0  0  0  0  0  0
  1  3  1  0  0  0  0
  1  5  1  0  0  0  0
  1  6  2  0  0  0  0
  2  5  2  0  0  0  0
  2 11  1  0  0  0  0
  2  4  1  0  0  0  0
  6 10  1  0  0  0  0
  7  8  2  0  0  0  0
  7 12  1  0  0  0  0
  8  9  1  0  0  0  0
  9 10  2  0  0  0  0
 10 11  1  0  0  0  0
 11 12  2  0  0  0  0
M  END
>  <CHROM.1>
5.69344208,17.23697068,4.41149684,2.27104459,-0.94597403,-2.01708251

>  <Name>
ligand

>  <RI>
0

>  <Rbt.Current_Directory>
/home/itssahil/PROJECTS/Mol_Feturizer/New_Systems/rnas/4LX5

>  <Rbt.Executable>
rbdock ($Id: //depot/dev/client3/rdock/2013.1/src/exe/rbdock.cxx#4 $)

>  <Rbt.Library>
libRbt.so (2013.1, Build901 2013/11/27)

>  <Rbt.Parameter_File>
/export/apps/rDock/src/rDock_2013.1_src/data/scripts/dock_solv.prm

>  <Rbt.Receptor>
prm/blind_docking_100.prm

>  <SCORE>
-15.0309

>  <SCORE.INTER>
-15.0309

>  <SCORE.INTER.CONST>
1

>  <SCORE.INTER.POLAR>
0

>  <SCORE.INTER.ROT>
0

>  <SCORE.INTER.SOLV>
15.4682

>  <SCORE.INTER.VDW>
-18.7767

>  <SCORE.INTER.norm>
-1.25258

>  <SCORE.INTRA>
0

>  <SCORE.INTRA.DIHEDRAL>
0

>  <SCORE.INTRA.DIHEDRAL.0>
0

>  <SCORE.INTRA.POLAR>
0

>  <SCORE.INTRA.POLAR.0>
0

>  <SCORE.INTRA.REPUL>
0

>  <SCORE.INTRA.REPUL.0>
0

>  <SCORE.INTRA.SOLV>
0

>  <SCORE.INTRA.SOLV.lig_0>
-48.1583

>  <SCORE.INTRA.VDW>
0

>  <SCORE.INTRA.VDW.0>
0

>  <SCORE.INTRA.norm>
0

>  <SCORE.RESTR>
0

>  <SCORE.RESTR.CAVITY>
0

>  <SCORE.RESTR.norm>
0

>  <SCORE.SYSTEM>
0

>  <SCORE.SYSTEM.CONST>
0

>  <SCORE.SYSTEM.DIHEDRAL>
0

>  <SCORE.SYSTEM.SOLV>
0

>  <SCORE.SYSTEM.norm>
0

>  <SCORE.heavy>
12

>  <SCORE.norm>
-1.25258

>  <RMSD>
3.054

$$$$
ligand
 OpenBabel11021811503D
libRbt.so/2013.1/901 2013/11/27
 12 13  0  0  0  0  0  0  0  0999 V2000
    4.6904   15.4461    3.9863 C   0  0  0  0  0  0  0  0  0  0  0  0
    6.0442   17.0433    2.9612 C   0  0  0  0  0  0  0  0  0  0  0  0
    4.0094   14.3066    3.9035 N   0  0  0  0  0  0  0  0  0  0  0  0
    6.6851   17.5482    1.9013 N   0  0  0  0  0  0  0  0  0  0  0  0
    5.3320   15.9108    2.8919 N   0  0  0  0  0  0  0  0  0  0  0  0
    4.7523   16.1042    5.1651 N   0  0  0  0  0  0  0  0  0  0  0  0
    6.8942   19.6313    5.4607 N   0  0  0  0  0  0  0  0  0  0  0  0
    6.2193   19.1151    6.5777 C   0  0  0  0  0  0  0  0  0  0  0  0
    5.4816   17.9135    6.4651 N   0  0  0  0  0  0  0  0  0  0  0  0
    5.4513   17.2607    5.2832 C   0  0  0  0  0  0  0  0  0  0  0  0
    6.1279   17.7558    4.1638 C   0  0  0  0  0  0  0  0  0  0  0  0
    6.8560   18.9422    4.2323 C   0  0  0  0  0  0  0  0  0  0  0  0
  1  3  1  0  0  0  0
  1  5  1  0  0  0  0
  1  6  2  0  0  0  0
  2  5  2  0  0  0  0
  2 11  1  0  0  0  0
  2  4  1  0  0  0  0
  6 10  1  0  0  0  0
  7  8  2  0  0  0  0
  7 12  1  0  0  0  0
  8  9  1  0  0  0  0
  9 10  2  0  0  0  0
 10 11  1  0  0  0  0
 11 12  2  0  0  0  0
M  END
>  <CHROM.1>
5.69768946,17.22161234,4.40694819,2.26361972,-0.95385511,-2.02968966

>  <Name>
ligand

>  <RI>
0

>  <Rbt.Current_Directory>
/home/itssahil/PROJECTS/Mol_Feturizer/New_Systems/rnas/4LX5

>  <Rbt.Executable>
rbdock ($Id: //depot/dev/client3/rdock/2013.1/src/exe/rbdock.cxx#4 $)

>  <Rbt.Library>
libRbt.so (2013.1, Build901 2013/11/27)

>  <Rbt.Parameter_File>
/export/apps/rDock/src/rDock_2013.1_src/data/scripts/dock_solv.prm

>  <Rbt.Receptor>
prm/pocket_docking_3.prm

>  <SCORE>
-15.0351

>  <SCORE.INTER>
-15.0351

>  <SCORE.INTER.CONST>
1

>  <SCORE.INTER.POLAR>
0

>  <SCORE.INTER.ROT>
0

>  <SCORE.INTER.SOLV>
15.6549

>  <SCORE.INTER.VDW>
-18.8417

>  <SCORE.INTER.norm>
-1.25292

>  <SCORE.INTRA>
0

>  <SCORE.INTRA.DIHEDRAL>
0

>  <SCORE.INTRA.DIHEDRAL.0>
0

>  <SCORE.INTRA.POLAR>
0

>  <SCORE.INTRA.POLAR.0>
0

>  <SCORE.INTRA.REPUL>
0

>  <SCORE.INTRA.REPUL.0>
0

>  <SCORE.INTRA.SOLV>
0

>  <SCORE.INTRA.SOLV.lig_0>
-48.1583

>  <SCORE.INTRA.VDW>
0

>  <SCORE.INTRA.VDW.0>
0

>  <SCORE.INTRA.norm>
0

>  <SCORE.RESTR>
0

>  <SCORE.RESTR.CAVITY>
0

>  <SCORE.RESTR.norm>
0

>  <SCORE.SYSTEM>
0

>  <SCORE.SYSTEM.CONST>
0

>  <SCORE.SYSTEM.DIHEDRAL>
0

>  <SCORE.SYSTEM.SOLV>
0

>  <SCORE.SYSTEM.norm>
0

>  <SCORE.heavy>
12

>  <SCORE.norm>
-1.25292

>  <RMSD>
3.054

$$$$
ligand
 OpenBabel11021811503D
libRbt.so/2013.1/901 2013/11/27
 12 13  0  0  0  0  0  0  0  0999 V2000
    4.6699   15.4451    3.9688 C   0  0  0  0  0  0  0  0  0  0  0  0
    6.0457   17.0394    2.9687 C   0  0  0  0  0  0  0  0  0  0  0  0
    3.9811   14.3115    3.8710 N   0  0  0  0  0  0  0  0  0  0  0  0
    6.7006   17.5472    1.9188 N   0  0  0  0  0  0  0  0  0  0  0  0
    5.3256   15.9129    2.8842 N   0  0  0  0  0  0  0  0  0  0  0  0
    4.7255   16.0939    5.1531 N   0  0  0  0  0  0  0  0  0  0  0  0
    6.8912   19.6021    5.4957 N   0  0  0  0  0  0  0  0  0  0  0  0
    6.2018   19.0828    6.6022 C   0  0  0  0  0  0  0  0  0  0  0  0
    5.4560   17.8878    6.4736 N   0  0  0  0  0  0  0  0  0  0  0  0
    5.4322   17.2440    5.2866 C   0  0  0  0  0  0  0  0  0  0  0  0
    6.1232   17.7423    4.1774 C   0  0  0  0  0  0  0  0  0  0  0  0
    6.8596   18.9225    4.2618 C   0  0  0  0  0  0  0  0  0  0  0  0
  1  3  1  0  0  0  0
  1  5  1  0  0  0  0
  1  6  2  0  0  0  0
  2  5  2  0  0  0  0
  2 11  1  0  0  0  0
  2  4  1  0  0  0  0
  6 10  1  0  0  0  0
  7  8  2  0  0  0  0
  7 12  1  0  0  0  0
  8  9  1  0  0  0  0
  9 10  2  0  0  0  0
 10 11  1  0  0  0  0
 11 12  2  0  0  0  0
M  END
>  <CHROM.1>
5.68663337,17.20962404,4.41243140,2.25470343,-0.94275376,-2.02944597

>  <Name>
ligand

>  <RI>
0

>  <Rbt.Current_Directory>
/home/itssahil/PROJECTS/Mol_Feturizer/New_Systems/rnas/4LX5

>  <Rbt.Executable>
rbdock ($Id: //depot/dev/client3/rdock/2013.1/src/exe/rbdock.cxx#4 $)

>  <Rbt.Library>
libRbt.so (2013.1, Build901 2013/11/27)

>  <Rbt.Parameter_File>
/export/apps/rDock/src/rDock_2013.1_src/data/scripts/dock_solv.prm

>  <Rbt.Receptor>
prm/pocket_docking_3.prm

>  <SCORE>
-15.0092

>  <SCORE.INTER>
-15.0092

>  <SCORE.INTER.CONST>
1

>  <SCORE.INTER.POLAR>
0

>  <SCORE.INTER.ROT>
0

>  <SCORE.INTER.SOLV>
15.4855

>  <SCORE.INTER.VDW>
-18.768

>  <SCORE.INTER.norm>
-1.25076

>  <SCORE.INTRA>
0

>  <SCORE.INTRA.DIHEDRAL>
0

>  <SCORE.INTRA.DIHEDRAL.0>
0

>  <SCORE.INTRA.POLAR>
0

>  <SCORE.INTRA.POLAR.0>
0

>  <SCORE.INTRA.REPUL>
0

>  <SCORE.INTRA.REPUL.0>
0

>  <SCORE.INTRA.SOLV>
0

>  <SCORE.INTRA.SOLV.lig_0>
-48.1583

>  <SCORE.INTRA.VDW>
0

>  <SCORE.INTRA.VDW.0>
0

>  <SCORE.INTRA.norm>
0

>  <SCORE.RESTR>
0

>  <SCORE.RESTR.CAVITY>
0

>  <SCORE.RESTR.norm>
0

>  <SCORE.SYSTEM>
0

>  <SCORE.SYSTEM.CONST>
0

>  <SCORE.SYSTEM.DIHEDRAL>
0

>  <SCORE.SYSTEM.SOLV>
0

>  <SCORE.SYSTEM.norm>
0

>  <SCORE.heavy>
12

>  <SCORE.norm>
-1.25076

>  <RMSD>
3.054

$$$$
ligand
 OpenBabel11021811503D
libRbt.so/2013.1/901 2013/11/27
 12 13  0  0  0  0  0  0  0  0999 V2000
    4.6703   15.4570    3.9788 C   0  0  0  0  0  0  0  0  0  0  0  0
    6.0465   17.0382    2.9586 C   0  0  0  0  0  0  0  0  0  0  0  0
    3.9782   14.3244    3.8942 N   0  0  0  0  0  0  0  0  0  0  0  0
    6.6987   17.5344    1.9015 N   0  0  0  0  0  0  0  0  0  0  0  0
    5.3231   15.9129    2.8873 N   0  0  0  0  0  0  0  0  0  0  0  0
    4.7322   16.1168    5.1567 N   0  0  0  0  0  0  0  0  0  0  0  0
    6.9084   19.6222    5.4582 N   0  0  0  0  0  0  0  0  0  0  0  0
    6.2218   19.1151    6.5722 C   0  0  0  0  0  0  0  0  0  0  0  0
    5.4724   17.9210    6.4575 N   0  0  0  0  0  0  0  0  0  0  0  0
    5.4423   17.2662    5.2767 C   0  0  0  0  0  0  0  0  0  0  0  0
    6.1304   17.7522    4.1603 C   0  0  0  0  0  0  0  0  0  0  0  0
    6.8703   18.9311    4.2309 C   0  0  0  0  0  0  0  0  0  0  0  0
  1  3  1  0  0  0  0
  1  5  1  0  0  0  0
  1  6  2  0  0  0  0
  2  5  2  0  0  0  0
  2 11  1  0  0  0  0
  2  4  1  0  0  0  0
  6 10  1  0  0  0  0
  7  8  2  0  0  0  0
  7 12  1  0  0  0  0
  8  9  1  0  0  0  0
  9 10  2  0  0  0  0
 10 11  1  0  0  0  0
 11 12  2  0  0  0  0
M  END
>  <CHROM.1>
5.69337308,17.22290794,4.40199654,2.26246892,-0.94205220,-2.03253987

>  <Name>
ligand

>  <RI>
0

>  <Rbt.Current_Directory>
/home/itssahil/PROJECTS/Mol_Feturizer/New_Systems/rnas/4LX5

>  <Rbt.Executable>
rbdock ($Id: //depot/dev/client3/rdock/2013.1/src/exe/rbdock.cxx#4 $)

>  <Rbt.Library>
libRbt.so (2013.1, Build901 2013/11/27)

>  <Rbt.Parameter_File>
/export/apps/rDock/src/rDock_2013.1_src/data/scripts/dock_solv.prm

>  <Rbt.Receptor>
prm/pocket_docking_5.prm

>  <SCORE>
-15.0258

>  <SCORE.INTER>
-15.0274

>  <SCORE.INTER.CONST>
1

>  <SCORE.INTER.POLAR>
0

>  <SCORE.INTER.ROT>
0

>  <SCORE.INTER.SOLV>
15.5109

>  <SCORE.INTER.VDW>
-18.7886

>  <SCORE.INTER.norm>
-1.25229

>  <SCORE.INTRA>
0

>  <SCORE.INTRA.DIHEDRAL>
0

>  <SCORE.INTRA.DIHEDRAL.0>
0

>  <SCORE.INTRA.POLAR>
0

>  <SCORE.INTRA.POLAR.0>
0

>  <SCORE.INTRA.REPUL>
0

>  <SCORE.INTRA.REPUL.0>
0

>  <SCORE.INTRA.SOLV>
0

>  <SCORE.INTRA.SOLV.lig_0>
-48.1583

>  <SCORE.INTRA.VDW>
0

>  <SCORE.INTRA.VDW.0>
0

>  <SCORE.INTRA.norm>
0

>  <SCORE.RESTR>
0.00167313

>  <SCORE.RESTR.CAVITY>
0.00167313

>  <SCORE.RESTR.norm>
0.000139427

>  <SCORE.SYSTEM>
0

>  <SCORE.SYSTEM.CONST>
0

>  <SCORE.SYSTEM.DIHEDRAL>
0

>  <SCORE.SYSTEM.SOLV>
0

>  <SCORE.SYSTEM.norm>
0

>  <SCORE.heavy>
12

>  <SCORE.norm>
-1.25215

>  <RMSD>
3.054

$$$$
ligand
 OpenBabel11021811503D
libRbt.so/2013.1/901 2013/11/27
 12 13  0  0  0  0  0  0  0  0999 V2000
    4.6801   15.4608    3.9804 C   0  0  0  0  0  0  0  0  0  0  0  0
    6.0423   17.0579    2.9662 C   0  0  0  0  0  0  0  0  0  0  0  0
    3.9958   14.3239    3.8908 N   0  0  0  0  0  0  0  0  0  0  0  0
    6.6882   17.5650    1.9104 N   0  0  0  0  0  0  0  0  0  0  0  0
    5.3267   15.9279    2.8900 N   0  0  0  0  0  0  0  0  0  0  0  0
    4.7404   16.1139    5.1621 N   0  0  0  0  0  0  0  0  0  0  0  0
    6.8926   19.6328    5.4790 N   0  0  0  0  0  0  0  0  0  0  0  0
    6.2126   19.1142    6.5917 C   0  0  0  0  0  0  0  0  0  0  0  0
    5.4713   17.9155    6.4719 N   0  0  0  0  0  0  0  0  0  0  0  0
    5.4428   17.2676    5.2872 C   0  0  0  0  0  0  0  0  0  0  0  0
    6.1245   17.7652    4.1720 C   0  0  0  0  0  0  0  0  0  0  0  0
    6.8561   18.9489    4.2477 C   0  0  0  0  0  0  0  0  0  0  0  0
  1  3  1  0  0  0  0
  1  5  1  0  0  0  0
  1  6  2  0  0  0  0
  2  5  2  0  0  0  0
  2 11  1  0  0  0  0
  2  4  1  0  0  0  0
  6 10  1  0  0  0  0
  7  8  2  0  0  0  0
  7 12  1  0  0  0  0
  8  9  1  0  0  0  0
  9 10  2  0  0  0  0
 10 11  1  0  0  0  0
 11 12  2  0  0  0  0
M  END
>  <CHROM.1>
5.69178222,17.23137382,4.41158657,2.26116132,-0.94956280,-2.02758112

>  <Name>
ligand

>  <RI>
0

>  <Rbt.Current_Directory>
/home/itssahil/PROJECTS/Mol_Feturizer/New_Systems/rnas/4LX5

>  <Rbt.Executable>
rbdock ($Id: //depot/dev/client3/rdock/2013.1/src/exe/rbdock.cxx#4 $)

>  <Rbt.Library>
libRbt.so (2013.1, Build901 2013/11/27)

>  <Rbt.Parameter_File>
/export/apps/rDock/src/rDock_2013.1_src/data/scripts/dock_solv.prm

>  <Rbt.Receptor>
prm/pocket_docking_7.prm

>  <SCORE>
-15.0332

>  <SCORE.INTER>
-15.0332

>  <SCORE.INTER.CONST>
1

>  <SCORE.INTER.POLAR>
0

>  <SCORE.INTER.ROT>
0

>  <SCORE.INTER.SOLV>
15.5672

>  <SCORE.INTER.VDW>
-18.8112

>  <SCORE.INTER.norm>
-1.25276

>  <SCORE.INTRA>
0

>  <SCORE.INTRA.DIHEDRAL>
0

>  <SCORE.INTRA.DIHEDRAL.0>
0

>  <SCORE.INTRA.POLAR>
0

>  <SCORE.INTRA.POLAR.0>
0

>  <SCORE.INTRA.REPUL>
0

>  <SCORE.INTRA.REPUL.0>
0

>  <SCORE.INTRA.SOLV>
0

>  <SCORE.INTRA.SOLV.lig_0>
-48.1583

>  <SCORE.INTRA.VDW>
0

>  <SCORE.INTRA.VDW.0>
0

>  <SCORE.INTRA.norm>
0

>  <SCORE.RESTR>
0

>  <SCORE.RESTR.CAVITY>
0

>  <SCORE.RESTR.norm>
0

>  <SCORE.SYSTEM>
0

>  <SCORE.SYSTEM.CONST>
0

>  <SCORE.SYSTEM.DIHEDRAL>
0

>  <SCORE.SYSTEM.SOLV>
0

>  <SCORE.SYSTEM.norm>
0

>  <SCORE.heavy>
12

>  <SCORE.norm>
-1.25276

>  <RMSD>
3.054

$$$$
ligand
 OpenBabel11021811503D
libRbt.so/2013.1/901 2013/11/27
 12 13  0  0  0  0  0  0  0  0999 V2000
    4.5111   15.3076    3.8733 C   0  0  0  0  0  0  0  0  0  0  0  0
    5.8198   16.9507    2.8621 C   0  0  0  0  0  0  0  0  0  0  0  0
    3.8222   14.1748    3.7686 N   0  0  0  0  0  0  0  0  0  0  0  0
    6.4101   17.5057    1.7980 N   0  0  0  0  0  0  0  0  0  0  0  0
    5.1003   15.8242    2.7728 N   0  0  0  0  0  0  0  0  0  0  0  0
    4.6334   15.9072    5.0784 N   0  0  0  0  0  0  0  0  0  0  0  0
    6.8017   19.4119    5.4402 N   0  0  0  0  0  0  0  0  0  0  0  0
    6.1802   18.8428    6.5624 C   0  0  0  0  0  0  0  0  0  0  0  0
    5.4328   17.6495    6.4277 N   0  0  0  0  0  0  0  0  0  0  0  0
    5.3421   17.0553    5.2183 C   0  0  0  0  0  0  0  0  0  0  0  0
    5.9651   17.6034    4.0925 C   0  0  0  0  0  0  0  0  0  0  0  0
    6.7006   18.7837    4.1830 C   0  0  0  0  0  0  0  0  0  0  0  0
  1  3  1  0  0  0  0
  1  5  1  0  0  0  0
  1  6  2  0  0  0  0
  2  5  2  0  0  0  0
  2 11  1  0  0  0  0
  2  4  1  0  0  0  0
  6 10  1  0  0  0  0
  7  8  2  0  0  0  0
  7 12  1  0  0  0  0
  8  9  1  0  0  0  0
  9 10  2  0  0  0  0
 10 11  1  0  0  0  0
 11 12  2  0  0  0  0
M  END
>  <CHROM.1>
5.54511641,17.05872333,4.33015503,2.34458481,-0.97030899,-1.91437031

>  <Name>
ligand

>  <RI>
0

>  <Rbt.Current_Directory>
/home/itssahil/PROJECTS/Mol_Feturizer/New_Systems/rnas/4LX5

>  <Rbt.Executable>
rbdock ($Id: //depot/dev/client3/rdock/2013.1/src/exe/rbdock.cxx#4 $)

>  <Rbt.Library>
libRbt.so (2013.1, Build901 2013/11/27)

>  <Rbt.Parameter_File>
/export/apps/rDock/src/rDock_2013.1_src/data/scripts/dock_solv.prm

>  <Rbt.Receptor>
prm/blind_docking_80.prm

>  <SCORE>
-14.7744

>  <SCORE.INTER>
-14.7744

>  <SCORE.INTER.CONST>
1

>  <SCORE.INTER.POLAR>
0

>  <SCORE.INTER.ROT>
0

>  <SCORE.INTER.SOLV>
14.6004

>  <SCORE.INTER.VDW>
-18.3164

>  <SCORE.INTER.norm>
-1.2312

>  <SCORE.INTRA>
0

>  <SCORE.INTRA.DIHEDRAL>
0

>  <SCORE.INTRA.DIHEDRAL.0>
0

>  <SCORE.INTRA.POLAR>
0

>  <SCORE.INTRA.POLAR.0>
0

>  <SCORE.INTRA.REPUL>
0

>  <SCORE.INTRA.REPUL.0>
0

>  <SCORE.INTRA.SOLV>
0

>  <SCORE.INTRA.SOLV.lig_0>
-48.1583

>  <SCORE.INTRA.VDW>
0

>  <SCORE.INTRA.VDW.0>
0

>  <SCORE.INTRA.norm>
0

>  <SCORE.RESTR>
0

>  <SCORE.RESTR.CAVITY>
0

>  <SCORE.RESTR.norm>
0

>  <SCORE.SYSTEM>
0

>  <SCORE.SYSTEM.CONST>
0

>  <SCORE.SYSTEM.DIHEDRAL>
0

>  <SCORE.SYSTEM.SOLV>
0

>  <SCORE.SYSTEM.norm>
0

>  <SCORE.heavy>
12

>  <SCORE.norm>
-1.2312

>  <RMSD>
3.055

$$$$
ligand
 OpenBabel11021811503D
libRbt.so/2013.1/901 2013/11/27
 12 13  0  0  0  0  0  0  0  0999 V2000
    4.5961   15.3966    3.9752 C   0  0  0  0  0  0  0  0  0  0  0  0
    5.9322   16.9552    2.8706 C   0  0  0  0  0  0  0  0  0  0  0  0
    3.8882   14.2713    3.9365 N   0  0  0  0  0  0  0  0  0  0  0  0
    6.5319   17.4368    1.7763 N   0  0  0  0  0  0  0  0  0  0  0  0
    5.1939   15.8376    2.8469 N   0  0  0  0  0  0  0  0  0  0  0  0
    4.7285   16.0637    5.1432 N   0  0  0  0  0  0  0  0  0  0  0  0
    6.9555   19.5466    5.3007 N   0  0  0  0  0  0  0  0  0  0  0  0
    6.3245   19.0549    6.4539 C   0  0  0  0  0  0  0  0  0  0  0  0
    5.5572   17.8685    6.3887 N   0  0  0  0  0  0  0  0  0  0  0  0
    5.4564   17.2059    5.2162 C   0  0  0  0  0  0  0  0  0  0  0  0
    6.0886   17.6765    4.0607 C   0  0  0  0  0  0  0  0  0  0  0  0
    6.8439   18.8475    4.0825 C   0  0  0  0  0  0  0  0  0  0  0  0
  1  3  1  0  0  0  0
  1  5  1  0  0  0  0
  1  6  2  0  0  0  0
  2  5  2  0  0  0  0
  2 11  1  0  0  0  0
  2  4  1  0  0  0  0
  6 10  1  0  0  0  0
  7  8  2  0  0  0  0
  7 12  1  0  0  0  0
  8  9  1  0  0  0  0
  9 10  2  0  0  0  0
 10 11  1  0  0  0  0
 11 12  2  0  0  0  0
M  END
>  <CHROM.1>
5.65947823,17.15380266,4.32951717,2.35442374,-0.95441940,-1.96502350

>  <Name>
ligand

>  <RI>
0

>  <Rbt.Current_Directory>
/home/itssahil/PROJECTS/Mol_Feturizer/New_Systems/rnas/4LX5

>  <Rbt.Executable>
rbdock ($Id: //depot/dev/client3/rdock/2013.1/src/exe/rbdock.cxx#4 $)

>  <Rbt.Library>
libRbt.so (2013.1, Build901 2013/11/27)

>  <Rbt.Parameter_File>
/export/apps/rDock/src/rDock_2013.1_src/data/scripts/dock_solv.prm

>  <Rbt.Receptor>
prm/pocket_docking_8.prm

>  <SCORE>
-14.7906

>  <SCORE.INTER>
-14.7906

>  <SCORE.INTER.CONST>
1

>  <SCORE.INTER.POLAR>
0

>  <SCORE.INTER.ROT>
0

>  <SCORE.INTER.SOLV>
15.0524

>  <SCORE.INTER.VDW>
-18.4778

>  <SCORE.INTER.norm>
-1.23255

>  <SCORE.INTRA>
0

>  <SCORE.INTRA.DIHEDRAL>
0

>  <SCORE.INTRA.DIHEDRAL.0>
0

>  <SCORE.INTRA.POLAR>
0

>  <SCORE.INTRA.POLAR.0>
0

>  <SCORE.INTRA.REPUL>
0

>  <SCORE.INTRA.REPUL.0>
0

>  <SCORE.INTRA.SOLV>
0

>  <SCORE.INTRA.SOLV.lig_0>
-48.1583

>  <SCORE.INTRA.VDW>
0

>  <SCORE.INTRA.VDW.0>
0

>  <SCORE.INTRA.norm>
0

>  <SCORE.RESTR>
0

>  <SCORE.RESTR.CAVITY>
0

>  <SCORE.RESTR.norm>
0

>  <SCORE.SYSTEM>
0

>  <SCORE.SYSTEM.CONST>
0

>  <SCORE.SYSTEM.DIHEDRAL>
0

>  <SCORE.SYSTEM.SOLV>
0

>  <SCORE.SYSTEM.norm>
0

>  <SCORE.heavy>
12

>  <SCORE.norm>
-1.23255

>  <RMSD>
3.055

$$$$
ligand
 OpenBabel11021811503D
libRbt.so/2013.1/901 2013/11/27
 12 13  0  0  0  0  0  0  0  0999 V2000
    4.6966   15.4498    3.9894 C   0  0  0  0  0  0  0  0  0  0  0  0
    6.0636   17.0438    2.9768 C   0  0  0  0  0  0  0  0  0  0  0  0
    4.0133   14.3122    3.9003 N   0  0  0  0  0  0  0  0  0  0  0  0
    6.7151   17.5473    1.9227 N   0  0  0  0  0  0  0  0  0  0  0  0
    5.3490   15.9132    2.9009 N   0  0  0  0  0  0  0  0  0  0  0  0
    4.7500   16.1074    5.1690 N   0  0  0  0  0  0  0  0  0  0  0  0
    6.8986   19.6286    5.4846 N   0  0  0  0  0  0  0  0  0  0  0  0
    6.2126   19.1138    6.5955 C   0  0  0  0  0  0  0  0  0  0  0  0
    5.4727   17.9143    6.4760 N   0  0  0  0  0  0  0  0  0  0  0  0
    5.4510   17.2619    5.2936 C   0  0  0  0  0  0  0  0  0  0  0  0
    6.1386   17.7557    4.1803 C   0  0  0  0  0  0  0  0  0  0  0  0
    6.8693   18.9400    4.2557 C   0  0  0  0  0  0  0  0  0  0  0  0
  1  3  1  0  0  0  0
  1  5  1  0  0  0  0
  1  6  2  0  0  0  0
  2  5  2  0  0  0  0
  2 11  1  0  0  0  0
  2  4  1  0  0  0  0
  6 10  1  0  0  0  0
  7  8  2  0  0  0  0
  7 12  1  0  0  0  0
  8  9  1  0  0  0  0
  9 10  2  0  0  0  0
 10 11  1  0  0  0  0
 11 12  2  0  0  0  0
M  END
>  <CHROM.1>
5.70492581,17.22252062,4.41954793,2.25223887,-0.94756420,-2.03858743

>  <Name>
ligand

>  <RI>
0

>  <Rbt.Current_Directory>
/home/itssahil/PROJECTS/Mol_Feturizer/New_Systems/rnas/4LX5

>  <Rbt.Executable>
rbdock ($Id: //depot/dev/client3/rdock/2013.1/src/exe/rbdock.cxx#4 $)

>  <Rbt.Library>
libRbt.so (2013.1, Build901 2013/11/27)

>  <Rbt.Parameter_File>
/export/apps/rDock/src/rDock_2013.1_src/data/scripts/dock_solv.prm

>  <Rbt.Receptor>
prm/blind_docking_40.prm

>  <SCORE>
-15.0171

>  <SCORE.INTER>
-15.0171

>  <SCORE.INTER.CONST>
1

>  <SCORE.INTER.POLAR>
0

>  <SCORE.INTER.ROT>
0

>  <SCORE.INTER.SOLV>
15.6864

>  <SCORE.INTER.VDW>
-18.8402

>  <SCORE.INTER.norm>
-1.25142

>  <SCORE.INTRA>
0

>  <SCORE.INTRA.DIHEDRAL>
0

>  <SCORE.INTRA.DIHEDRAL.0>
0

>  <SCORE.INTRA.POLAR>
0

>  <SCORE.INTRA.POLAR.0>
0

>  <SCORE.INTRA.REPUL>
0

>  <SCORE.INTRA.REPUL.0>
0

>  <SCORE.INTRA.SOLV>
0

>  <SCORE.INTRA.SOLV.lig_0>
-48.1583

>  <SCORE.INTRA.VDW>
0

>  <SCORE.INTRA.VDW.0>
0

>  <SCORE.INTRA.norm>
0

>  <SCORE.RESTR>
0

>  <SCORE.RESTR.CAVITY>
0

>  <SCORE.RESTR.norm>
0

>  <SCORE.SYSTEM>
0

>  <SCORE.SYSTEM.CONST>
0

>  <SCORE.SYSTEM.DIHEDRAL>
0

>  <SCORE.SYSTEM.SOLV>
0

>  <SCORE.SYSTEM.norm>
0

>  <SCORE.heavy>
12

>  <SCORE.norm>
-1.25142

>  <RMSD>
3.056

$$$$
ligand
 OpenBabel11021811503D
libRbt.so/2013.1/901 2013/11/27
 12 13  0  0  0  0  0  0  0  0999 V2000
    4.6391   15.4534    3.9625 C   0  0  0  0  0  0  0  0  0  0  0  0
    6.0472   17.0288    2.9777 C   0  0  0  0  0  0  0  0  0  0  0  0
    3.9368   14.3288    3.8574 N   0  0  0  0  0  0  0  0  0  0  0  0
    6.7210   17.5271    1.9352 N   0  0  0  0  0  0  0  0  0  0  0  0
    5.3135   15.9117    2.8854 N   0  0  0  0  0  0  0  0  0  0  0  0
    4.6892   16.1025    5.1470 N   0  0  0  0  0  0  0  0  0  0  0  0
    6.8963   19.5824    5.5126 N   0  0  0  0  0  0  0  0  0  0  0  0
    6.1871   19.0731    6.6113 C   0  0  0  0  0  0  0  0  0  0  0  0
    5.4274   17.8878    6.4747 N   0  0  0  0  0  0  0  0  0  0  0  0
    5.4092   17.2434    5.2880 C   0  0  0  0  0  0  0  0  0  0  0  0
    6.1197   17.7317    4.1867 C   0  0  0  0  0  0  0  0  0  0  0  0
    6.8704   18.9022    4.2790 C   0  0  0  0  0  0  0  0  0  0  0  0
  1  3  1  0  0  0  0
  1  5  1  0  0  0  0
  1  6  2  0  0  0  0
  2  5  2  0  0  0  0
  2 11  1  0  0  0  0
  2  4  1  0  0  0  0
  6 10  1  0  0  0  0
  7  8  2  0  0  0  0
  7 12  1  0  0  0  0
  8  9  1  0  0  0  0
  9 10  2  0  0  0  0
 10 11  1  0  0  0  0
 11 12  2  0  0  0  0
M  END
>  <CHROM.1>
5.67344168,17.20491606,4.41690068,2.24671159,-0.92581248,-2.03666088

>  <Name>
ligand

>  <RI>
0

>  <Rbt.Current_Directory>
/home/itssahil/PROJECTS/Mol_Feturizer/New_Systems/rnas/4LX5

>  <Rbt.Executable>
rbdock ($Id: //depot/dev/client3/rdock/2013.1/src/exe/rbdock.cxx#4 $)

>  <Rbt.Library>
libRbt.so (2013.1, Build901 2013/11/27)

>  <Rbt.Parameter_File>
/export/apps/rDock/src/rDock_2013.1_src/data/scripts/dock_solv.prm

>  <Rbt.Receptor>
prm/pocket_docking_6.prm

>  <SCORE>
-14.9965

>  <SCORE.INTER>
-14.9965

>  <SCORE.INTER.CONST>
1

>  <SCORE.INTER.POLAR>
0

>  <SCORE.INTER.ROT>
0

>  <SCORE.INTER.SOLV>
15.303

>  <SCORE.INTER.VDW>
-18.6987

>  <SCORE.INTER.norm>
-1.24971

>  <SCORE.INTRA>
0

>  <SCORE.INTRA.DIHEDRAL>
0

>  <SCORE.INTRA.DIHEDRAL.0>
0

>  <SCORE.INTRA.POLAR>
0

>  <SCORE.INTRA.POLAR.0>
0

>  <SCORE.INTRA.REPUL>
0

>  <SCORE.INTRA.REPUL.0>
0

>  <SCORE.INTRA.SOLV>
0

>  <SCORE.INTRA.SOLV.lig_0>
-48.1583

>  <SCORE.INTRA.VDW>
0

>  <SCORE.INTRA.VDW.0>
0

>  <SCORE.INTRA.norm>
0

>  <SCORE.RESTR>
0

>  <SCORE.RESTR.CAVITY>
0

>  <SCORE.RESTR.norm>
0

>  <SCORE.SYSTEM>
0

>  <SCORE.SYSTEM.CONST>
0

>  <SCORE.SYSTEM.DIHEDRAL>
0

>  <SCORE.SYSTEM.SOLV>
0

>  <SCORE.SYSTEM.norm>
0

>  <SCORE.heavy>
12

>  <SCORE.norm>
-1.24971

>  <RMSD>
3.056

$$$$
ligand
 OpenBabel11021811503D
libRbt.so/2013.1/901 2013/11/27
 12 13  0  0  0  0  0  0  0  0999 V2000
    4.6821   15.4565    3.9879 C   0  0  0  0  0  0  0  0  0  0  0  0
    6.0384   17.0551    2.9682 C   0  0  0  0  0  0  0  0  0  0  0  0
    3.9992   14.3185    3.9013 N   0  0  0  0  0  0  0  0  0  0  0  0
    6.6799   17.5627    1.9100 N   0  0  0  0  0  0  0  0  0  0  0  0
    5.3242   15.9241    2.8951 N   0  0  0  0  0  0  0  0  0  0  0  0
    4.7456   16.1103    5.1692 N   0  0  0  0  0  0  0  0  0  0  0  0
    6.8936   19.6325    5.4769 N   0  0  0  0  0  0  0  0  0  0  0  0
    6.2182   19.1134    6.5922 C   0  0  0  0  0  0  0  0  0  0  0  0
    5.4783   17.9135    6.4755 N   0  0  0  0  0  0  0  0  0  0  0  0
    5.4466   17.2650    5.2912 C   0  0  0  0  0  0  0  0  0  0  0  0
    6.1237   17.7631    4.1734 C   0  0  0  0  0  0  0  0  0  0  0  0
    6.8538   18.9480    4.2460 C   0  0  0  0  0  0  0  0  0  0  0  0
  1  3  1  0  0  0  0
  1  5  1  0  0  0  0
  1  6  2  0  0  0  0
  2  5  2  0  0  0  0
  2 11  1  0  0  0  0
  2  4  1  0  0  0  0
  6 10  1  0  0  0  0
  7  8  2  0  0  0  0
  7 12  1  0  0  0  0
  8  9  1  0  0  0  0
  9 10  2  0  0  0  0
 10 11  1  0  0  0  0
 11 12  2  0  0  0  0
M  END
>  <CHROM.1>
5.69263159,17.22876888,4.41475486,2.26539991,-0.95245415,-2.02460896

>  <Name>
ligand

>  <RI>
0

>  <Rbt.Current_Directory>
/home/itssahil/PROJECTS/Mol_Feturizer/New_Systems/rnas/4LX5

>  <Rbt.Executable>
rbdock ($Id: //depot/dev/client3/rdock/2013.1/src/exe/rbdock.cxx#4 $)

>  <Rbt.Library>
libRbt.so (2013.1, Build901 2013/11/27)

>  <Rbt.Parameter_File>
/export/apps/rDock/src/rDock_2013.1_src/data/scripts/dock_solv.prm

>  <Rbt.Receptor>
prm/pocket_docking_7.prm

>  <SCORE>
-15.033

>  <SCORE.INTER>
-15.033

>  <SCORE.INTER.CONST>
1

>  <SCORE.INTER.POLAR>
0

>  <SCORE.INTER.ROT>
0

>  <SCORE.INTER.SOLV>
15.5821

>  <SCORE.INTER.VDW>
-18.8161

>  <SCORE.INTER.norm>
-1.25275

>  <SCORE.INTRA>
0

>  <SCORE.INTRA.DIHEDRAL>
0

>  <SCORE.INTRA.DIHEDRAL.0>
0

>  <SCORE.INTRA.POLAR>
0

>  <SCORE.INTRA.POLAR.0>
0

>  <SCORE.INTRA.REPUL>
0

>  <SCORE.INTRA.REPUL.0>
0

>  <SCORE.INTRA.SOLV>
0

>  <SCORE.INTRA.SOLV.lig_0>
-48.1583

>  <SCORE.INTRA.VDW>
0

>  <SCORE.INTRA.VDW.0>
0

>  <SCORE.INTRA.norm>
0

>  <SCORE.RESTR>
0

>  <SCORE.RESTR.CAVITY>
0

>  <SCORE.RESTR.norm>
0

>  <SCORE.SYSTEM>
0

>  <SCORE.SYSTEM.CONST>
0

>  <SCORE.SYSTEM.DIHEDRAL>
0

>  <SCORE.SYSTEM.SOLV>
0

>  <SCORE.SYSTEM.norm>
0

>  <SCORE.heavy>
12

>  <SCORE.norm>
-1.25275

>  <RMSD>
3.056

$$$$
ligand
 OpenBabel11021811503D
libRbt.so/2013.1/901 2013/11/27
 12 13  0  0  0  0  0  0  0  0999 V2000
    4.6542   15.4349    3.9789 C   0  0  0  0  0  0  0  0  0  0  0  0
    6.0009   17.0360    2.9504 C   0  0  0  0  0  0  0  0  0  0  0  0
    3.9721   14.2961    3.8964 N   0  0  0  0  0  0  0  0  0  0  0  0
    6.6340   17.5451    1.8878 N   0  0  0  0  0  0  0  0  0  0  0  0
    5.2877   15.9040    2.8817 N   0  0  0  0  0  0  0  0  0  0  0  0
    4.7253   16.0880    5.1600 N   0  0  0  0  0  0  0  0  0  0  0  0
    6.8709   19.6129    5.4544 N   0  0  0  0  0  0  0  0  0  0  0  0
    6.2043   19.0922    6.5743 C   0  0  0  0  0  0  0  0  0  0  0  0
    5.4652   17.8914    6.4621 N   0  0  0  0  0  0  0  0  0  0  0  0
    5.4257   17.2436    5.2778 C   0  0  0  0  0  0  0  0  0  0  0  0
    6.0940   17.7433    4.1553 C   0  0  0  0  0  0  0  0  0  0  0  0
    6.8231   18.9291    4.2235 C   0  0  0  0  0  0  0  0  0  0  0  0
  1  3  1  0  0  0  0
  1  5  1  0  0  0  0
  1  6  2  0  0  0  0
  2  5  2  0  0  0  0
  2 11  1  0  0  0  0
  2  4  1  0  0  0  0
  6 10  1  0  0  0  0
  7  8  2  0  0  0  0
  7 12  1  0  0  0  0
  8  9  1  0  0  0  0
  9 10  2  0  0  0  0
 10 11  1  0  0  0  0
 11 12  2  0  0  0  0
M  END
>  <CHROM.1>
5.66542638,17.20823589,4.39949649,2.27573165,-0.95678497,-2.01553386

>  <Name>
ligand

>  <RI>
0

>  <Rbt.Current_Directory>
/home/itssahil/PROJECTS/Mol_Feturizer/New_Systems/rnas/4LX5

>  <Rbt.Executable>
rbdock ($Id: //depot/dev/client3/rdock/2013.1/src/exe/rbdock.cxx#4 $)

>  <Rbt.Library>
libRbt.so (2013.1, Build901 2013/11/27)

>  <Rbt.Parameter_File>
/export/apps/rDock/src/rDock_2013.1_src/data/scripts/dock_solv.prm

>  <Rbt.Receptor>
prm/pocket_docking_8.prm

>  <SCORE>
-15.0354

>  <SCORE.INTER>
-15.0354

>  <SCORE.INTER.CONST>
1

>  <SCORE.INTER.POLAR>
0

>  <SCORE.INTER.ROT>
0

>  <SCORE.INTER.SOLV>
15.409

>  <SCORE.INTER.VDW>
-18.7599

>  <SCORE.INTER.norm>
-1.25295

>  <SCORE.INTRA>
0

>  <SCORE.INTRA.DIHEDRAL>
0

>  <SCORE.INTRA.DIHEDRAL.0>
0

>  <SCORE.INTRA.POLAR>
0

>  <SCORE.INTRA.POLAR.0>
0

>  <SCORE.INTRA.REPUL>
0

>  <SCORE.INTRA.REPUL.0>
0

>  <SCORE.INTRA.SOLV>
0

>  <SCORE.INTRA.SOLV.lig_0>
-48.1583

>  <SCORE.INTRA.VDW>
0

>  <SCORE.INTRA.VDW.0>
0

>  <SCORE.INTRA.norm>
0

>  <SCORE.RESTR>
0

>  <SCORE.RESTR.CAVITY>
0

>  <SCORE.RESTR.norm>
0

>  <SCORE.SYSTEM>
0

>  <SCORE.SYSTEM.CONST>
0

>  <SCORE.SYSTEM.DIHEDRAL>
0

>  <SCORE.SYSTEM.SOLV>
0

>  <SCORE.SYSTEM.norm>
0

>  <SCORE.heavy>
12

>  <SCORE.norm>
-1.25295

>  <RMSD>
3.056

$$$$
ligand
 OpenBabel11021811503D
libRbt.so/2013.1/901 2013/11/27
 12 13  0  0  0  0  0  0  0  0999 V2000
    4.5916   15.2866    3.9510 C   0  0  0  0  0  0  0  0  0  0  0  0
    5.8263   16.9225    2.8399 C   0  0  0  0  0  0  0  0  0  0  0  0
    3.9065   14.1476    3.9041 N   0  0  0  0  0  0  0  0  0  0  0  0
    6.3491   17.4647    1.7346 N   0  0  0  0  0  0  0  0  0  0  0  0
    5.1115   15.7898    2.8100 N   0  0  0  0  0  0  0  0  0  0  0  0
    4.7796   15.9059    5.1375 N   0  0  0  0  0  0  0  0  0  0  0  0
    6.9384   19.4304    5.3181 N   0  0  0  0  0  0  0  0  0  0  0  0
    6.3880   18.8748    6.4834 C   0  0  0  0  0  0  0  0  0  0  0  0
    5.6432   17.6744    6.4109 N   0  0  0  0  0  0  0  0  0  0  0  0
    5.4865   17.0607    5.2181 C   0  0  0  0  0  0  0  0  0  0  0  0
    6.0383   17.5954    4.0495 C   0  0  0  0  0  0  0  0  0  0  0  0
    6.7688   18.7819    4.0787 C   0  0  0  0  0  0  0  0  0  0  0  0
  1  3  1  0  0  0  0
  1  5  1  0  0  0  0
  1  6  2  0  0  0  0
  2  5  2  0  0  0  0
  2 11  1  0  0  0  0
  2  4  1  0  0  0  0
  6 10  1  0  0  0  0
  7  8  2  0  0  0  0
  7 12  1  0  0  0  0
  8  9  1  0  0  0  0
  9 10  2  0  0  0  0
 10 11  1  0  0  0  0
 11 12  2  0  0  0  0
M  END
>  <CHROM.1>
5.63716331,17.05163327,4.31962988,2.44116273,-0.99515911,-1.84947034

>  <Name>
ligand

>  <RI>
0

>  <Rbt.Current_Directory>
/home/itssahil/PROJECTS/Mol_Feturizer/New_Systems/rnas/4LX5

>  <Rbt.Executable>
rbdock ($Id: //depot/dev/client3/rdock/2013.1/src/exe/rbdock.cxx#4 $)

>  <Rbt.Library>
libRbt.so (2013.1, Build901 2013/11/27)

>  <Rbt.Parameter_File>
/export/apps/rDock/src/rDock_2013.1_src/data/scripts/dock_solv.prm

>  <Rbt.Receptor>
prm/blind_docking_80.prm

>  <SCORE>
-14.4407

>  <SCORE.INTER>
-14.4407

>  <SCORE.INTER.CONST>
1

>  <SCORE.INTER.POLAR>
0

>  <SCORE.INTER.ROT>
0

>  <SCORE.INTER.SOLV>
14.9442

>  <SCORE.INTER.VDW>
-18.2085

>  <SCORE.INTER.norm>
-1.20339

>  <SCORE.INTRA>
0

>  <SCORE.INTRA.DIHEDRAL>
0

>  <SCORE.INTRA.DIHEDRAL.0>
0

>  <SCORE.INTRA.POLAR>
0

>  <SCORE.INTRA.POLAR.0>
0

>  <SCORE.INTRA.REPUL>
0

>  <SCORE.INTRA.REPUL.0>
0

>  <SCORE.INTRA.SOLV>
0

>  <SCORE.INTRA.SOLV.lig_0>
-48.1583

>  <SCORE.INTRA.VDW>
0

>  <SCORE.INTRA.VDW.0>
0

>  <SCORE.INTRA.norm>
0

>  <SCORE.RESTR>
0

>  <SCORE.RESTR.CAVITY>
0

>  <SCORE.RESTR.norm>
0

>  <SCORE.SYSTEM>
0

>  <SCORE.SYSTEM.CONST>
0

>  <SCORE.SYSTEM.DIHEDRAL>
0

>  <SCORE.SYSTEM.SOLV>
0

>  <SCORE.SYSTEM.norm>
0

>  <SCORE.heavy>
12

>  <SCORE.norm>
-1.20339

>  <RMSD>
3.058

$$$$
ligand
 OpenBabel11021811503D
libRbt.so/2013.1/901 2013/11/27
 12 13  0  0  0  0  0  0  0  0999 V2000
    4.6815   15.4503    3.9926 C   0  0  0  0  0  0  0  0  0  0  0  0
    6.0391   17.0467    2.9712 C   0  0  0  0  0  0  0  0  0  0  0  0
    3.9991   14.3119    3.9076 N   0  0  0  0  0  0  0  0  0  0  0  0
    6.6824   17.5518    1.9128 N   0  0  0  0  0  0  0  0  0  0  0  0
    5.3255   15.9153    2.8997 N   0  0  0  0  0  0  0  0  0  0  0  0
    4.7426   16.1072    5.1722 N   0  0  0  0  0  0  0  0  0  0  0  0
    6.8889   19.6309    5.4747 N   0  0  0  0  0  0  0  0  0  0  0  0
    6.2116   19.1145    6.5901 C   0  0  0  0  0  0  0  0  0  0  0  0
    5.4724   17.9141    6.4752 N   0  0  0  0  0  0  0  0  0  0  0  0
    5.4430   17.2625    5.2926 C   0  0  0  0  0  0  0  0  0  0  0  0
    6.1220   17.7579    4.1747 C   0  0  0  0  0  0  0  0  0  0  0  0
    6.8516   18.9432    4.2456 C   0  0  0  0  0  0  0  0  0  0  0  0
  1  3  1  0  0  0  0
  1  5  1  0  0  0  0
  1  6  2  0  0  0  0
  2  5  2  0  0  0  0
  2 11  1  0  0  0  0
  2  4  1  0  0  0  0
  6 10  1  0  0  0  0
  7  8  2  0  0  0  0
  7 12  1  0  0  0  0
  8  9  1  0  0  0  0
  9 10  2  0  0  0  0
 10 11  1  0  0  0  0
 11 12  2  0  0  0  0
M  END
>  <CHROM.1>
5.69065460,17.22402674,4.41665335,2.26231805,-0.95193506,-2.02971403

>  <Name>
ligand

>  <RI>
0

>  <Rbt.Current_Directory>
/home/itssahil/PROJECTS/Mol_Feturizer/New_Systems/rnas/4LX5

>  <Rbt.Executable>
rbdock ($Id: //depot/dev/client3/rdock/2013.1/src/exe/rbdock.cxx#4 $)

>  <Rbt.Library>
libRbt.so (2013.1, Build901 2013/11/27)

>  <Rbt.Parameter_File>
/export/apps/rDock/src/rDock_2013.1_src/data/scripts/dock_solv.prm

>  <Rbt.Receptor>
prm/pocket_docking_3.prm

>  <SCORE>
-15.0295

>  <SCORE.INTER>
-15.0295

>  <SCORE.INTER.CONST>
1

>  <SCORE.INTER.POLAR>
0

>  <SCORE.INTER.ROT>
0

>  <SCORE.INTER.SOLV>
15.5898

>  <SCORE.INTER.VDW>
-18.8163

>  <SCORE.INTER.norm>
-1.25246

>  <SCORE.INTRA>
0

>  <SCORE.INTRA.DIHEDRAL>
0

>  <SCORE.INTRA.DIHEDRAL.0>
0

>  <SCORE.INTRA.POLAR>
0

>  <SCORE.INTRA.POLAR.0>
0

>  <SCORE.INTRA.REPUL>
0

>  <SCORE.INTRA.REPUL.0>
0

>  <SCORE.INTRA.SOLV>
0

>  <SCORE.INTRA.SOLV.lig_0>
-48.1583

>  <SCORE.INTRA.VDW>
0

>  <SCORE.INTRA.VDW.0>
0

>  <SCORE.INTRA.norm>
0

>  <SCORE.RESTR>
0

>  <SCORE.RESTR.CAVITY>
0

>  <SCORE.RESTR.norm>
0

>  <SCORE.SYSTEM>
0

>  <SCORE.SYSTEM.CONST>
0

>  <SCORE.SYSTEM.DIHEDRAL>
0

>  <SCORE.SYSTEM.SOLV>
0

>  <SCORE.SYSTEM.norm>
0

>  <SCORE.heavy>
12

>  <SCORE.norm>
-1.25246

>  <RMSD>
3.058

$$$$
ligand
 OpenBabel11021811503D
libRbt.so/2013.1/901 2013/11/27
 12 13  0  0  0  0  0  0  0  0999 V2000
    4.6488   15.4602    3.9941 C   0  0  0  0  0  0  0  0  0  0  0  0
    5.9990   17.0468    2.9478 C   0  0  0  0  0  0  0  0  0  0  0  0
    3.9565   14.3269    3.9217 N   0  0  0  0  0  0  0  0  0  0  0  0
    6.6261   17.5474    1.8777 N   0  0  0  0  0  0  0  0  0  0  0  0
    5.2757   15.9207    2.8895 N   0  0  0  0  0  0  0  0  0  0  0  0
    4.7367   16.1162    5.1724 N   0  0  0  0  0  0  0  0  0  0  0  0
    6.9143   19.6239    5.4355 N   0  0  0  0  0  0  0  0  0  0  0  0
    6.2541   19.1122    6.5632 C   0  0  0  0  0  0  0  0  0  0  0  0
    5.5040   17.9173    6.4619 N   0  0  0  0  0  0  0  0  0  0  0  0
    5.4478   17.2663    5.2799 C   0  0  0  0  0  0  0  0  0  0  0  0
    6.1095   17.7570    4.1496 C   0  0  0  0  0  0  0  0  0  0  0  0
    6.8491   18.9368    4.2071 C   0  0  0  0  0  0  0  0  0  0  0  0
  1  3  1  0  0  0  0
  1  5  1  0  0  0  0
  1  6  2  0  0  0  0
  2  5  2  0  0  0  0
  2 11  1  0  0  0  0
  2  4  1  0  0  0  0
  6 10  1  0  0  0  0
  7  8  2  0  0  0  0
  7 12  1  0  0  0  0
  8  9  1  0  0  0  0
  9 10  2  0  0  0  0
 10 11  1  0  0  0  0
 11 12  2  0  0  0  0
M  END
>  <CHROM.1>
5.67880712,17.22626746,4.39952995,2.29682953,-0.95325107,-2.00136977

>  <Name>
ligand

>  <RI>
0

>  <Rbt.Current_Directory>
/home/itssahil/PROJECTS/Mol_Feturizer/New_Systems/rnas/4LX5

>  <Rbt.Executable>
rbdock ($Id: //depot/dev/client3/rdock/2013.1/src/exe/rbdock.cxx#4 $)

>  <Rbt.Library>
libRbt.so (2013.1, Build901 2013/11/27)

>  <Rbt.Parameter_File>
/export/apps/rDock/src/rDock_2013.1_src/data/scripts/dock_solv.prm

>  <Rbt.Receptor>
prm/pocket_docking_7.prm

>  <SCORE>
-15.0431

>  <SCORE.INTER>
-15.0431

>  <SCORE.INTER.CONST>
1

>  <SCORE.INTER.POLAR>
0

>  <SCORE.INTER.ROT>
0

>  <SCORE.INTER.SOLV>
15.339

>  <SCORE.INTER.VDW>
-18.7417

>  <SCORE.INTER.norm>
-1.25359

>  <SCORE.INTRA>
0

>  <SCORE.INTRA.DIHEDRAL>
0

>  <SCORE.INTRA.DIHEDRAL.0>
0

>  <SCORE.INTRA.POLAR>
0

>  <SCORE.INTRA.POLAR.0>
0

>  <SCORE.INTRA.REPUL>
0

>  <SCORE.INTRA.REPUL.0>
0

>  <SCORE.INTRA.SOLV>
0

>  <SCORE.INTRA.SOLV.lig_0>
-48.1583

>  <SCORE.INTRA.VDW>
0

>  <SCORE.INTRA.VDW.0>
0

>  <SCORE.INTRA.norm>
0

>  <SCORE.RESTR>
0

>  <SCORE.RESTR.CAVITY>
0

>  <SCORE.RESTR.norm>
0

>  <SCORE.SYSTEM>
0

>  <SCORE.SYSTEM.CONST>
0

>  <SCORE.SYSTEM.DIHEDRAL>
0

>  <SCORE.SYSTEM.SOLV>
0

>  <SCORE.SYSTEM.norm>
0

>  <SCORE.heavy>
12

>  <SCORE.norm>
-1.25359

>  <RMSD>
3.058

$$$$
ligand
 OpenBabel11021811503D
libRbt.so/2013.1/901 2013/11/27
 12 13  0  0  0  0  0  0  0  0999 V2000
    4.6439   15.4047    3.9715 C   0  0  0  0  0  0  0  0  0  0  0  0
    5.9935   17.0154    2.9618 C   0  0  0  0  0  0  0  0  0  0  0  0
    3.9655   14.2647    3.8776 N   0  0  0  0  0  0  0  0  0  0  0  0
    6.6325   17.5325    1.9067 N   0  0  0  0  0  0  0  0  0  0  0  0
    5.2838   15.8820    2.8815 N   0  0  0  0  0  0  0  0  0  0  0  0
    4.7053   16.0509    5.1569 N   0  0  0  0  0  0  0  0  0  0  0  0
    6.8395   19.5795    5.4871 N   0  0  0  0  0  0  0  0  0  0  0  0
    6.1667   19.0504    6.5992 C   0  0  0  0  0  0  0  0  0  0  0  0
    5.4315   17.8484    6.4749 N   0  0  0  0  0  0  0  0  0  0  0  0
    5.4018   17.2076    5.2864 C   0  0  0  0  0  0  0  0  0  0  0  0
    6.0765   17.7158    4.1716 C   0  0  0  0  0  0  0  0  0  0  0  0
    6.8020   18.9030    4.2518 C   0  0  0  0  0  0  0  0  0  0  0  0
  1  3  1  0  0  0  0
  1  5  1  0  0  0  0
  1  6  2  0  0  0  0
  2  5  2  0  0  0  0
  2 11  1  0  0  0  0
  2  4  1  0  0  0  0
  6 10  1  0  0  0  0
  7  8  2  0  0  0  0
  7 12  1  0  0  0  0
  8  9  1  0  0  0  0
  9 10  2  0  0  0  0
 10 11  1  0  0  0  0
 11 12  2  0  0  0  0
M  END
>  <CHROM.1>
5.64763652,17.17812892,4.40959348,2.26305569,-0.95617393,-2.01991264

>  <Name>
ligand

>  <RI>
0

>  <Rbt.Current_Directory>
/home/itssahil/PROJECTS/Mol_Feturizer/New_Systems/rnas/4LX5

>  <Rbt.Executable>
rbdock ($Id: //depot/dev/client3/rdock/2013.1/src/exe/rbdock.cxx#4 $)

>  <Rbt.Library>
libRbt.so (2013.1, Build901 2013/11/27)

>  <Rbt.Parameter_File>
/export/apps/rDock/src/rDock_2013.1_src/data/scripts/dock_solv.prm

>  <Rbt.Receptor>
prm/pocket_docking_4.prm

>  <SCORE>
-15.0245

>  <SCORE.INTER>
-15.0245

>  <SCORE.INTER.CONST>
1

>  <SCORE.INTER.POLAR>
0

>  <SCORE.INTER.ROT>
0

>  <SCORE.INTER.SOLV>
15.3639

>  <SCORE.INTER.VDW>
-18.7376

>  <SCORE.INTER.norm>
-1.25204

>  <SCORE.INTRA>
0

>  <SCORE.INTRA.DIHEDRAL>
0

>  <SCORE.INTRA.DIHEDRAL.0>
0

>  <SCORE.INTRA.POLAR>
0

>  <SCORE.INTRA.POLAR.0>
0

>  <SCORE.INTRA.REPUL>
0

>  <SCORE.INTRA.REPUL.0>
0

>  <SCORE.INTRA.SOLV>
0

>  <SCORE.INTRA.SOLV.lig_0>
-48.1583

>  <SCORE.INTRA.VDW>
0

>  <SCORE.INTRA.VDW.0>
0

>  <SCORE.INTRA.norm>
0

>  <SCORE.RESTR>
0

>  <SCORE.RESTR.CAVITY>
0

>  <SCORE.RESTR.norm>
0

>  <SCORE.SYSTEM>
0

>  <SCORE.SYSTEM.CONST>
0

>  <SCORE.SYSTEM.DIHEDRAL>
0

>  <SCORE.SYSTEM.SOLV>
0

>  <SCORE.SYSTEM.norm>
0

>  <SCORE.heavy>
12

>  <SCORE.norm>
-1.25204

>  <RMSD>
3.059

$$$$
ligand
 OpenBabel11021811503D
libRbt.so/2013.1/901 2013/11/27
 12 13  0  0  0  0  0  0  0  0999 V2000
    4.6395   15.4353    3.9848 C   0  0  0  0  0  0  0  0  0  0  0  0
    5.9949   17.0308    2.9590 C   0  0  0  0  0  0  0  0  0  0  0  0
    3.9542   14.2986    3.9014 N   0  0  0  0  0  0  0  0  0  0  0  0
    6.6333   17.5366    1.8981 N   0  0  0  0  0  0  0  0  0  0  0  0
    5.2784   15.9011    2.8893 N   0  0  0  0  0  0  0  0  0  0  0  0
    4.7087   16.0897    5.1654 N   0  0  0  0  0  0  0  0  0  0  0  0
    6.8644   19.6081    5.4629 N   0  0  0  0  0  0  0  0  0  0  0  0
    6.1923   19.0909    6.5810 C   0  0  0  0  0  0  0  0  0  0  0  0
    5.4497   17.8924    6.4678 N   0  0  0  0  0  0  0  0  0  0  0  0
    5.4123   17.2432    5.2841 C   0  0  0  0  0  0  0  0  0  0  0  0
    6.0861   17.7394    4.1634 C   0  0  0  0  0  0  0  0  0  0  0  0
    6.8187   18.9229    4.2326 C   0  0  0  0  0  0  0  0  0  0  0  0
  1  3  1  0  0  0  0
  1  5  1  0  0  0  0
  1  6  2  0  0  0  0
  2  5  2  0  0  0  0
  2 11  1  0  0  0  0
  2  4  1  0  0  0  0
  6 10  1  0  0  0  0
  7  8  2  0  0  0  0
  7 12  1  0  0  0  0
  8  9  1  0  0  0  0
  9 10  2  0  0  0  0
 10 11  1  0  0  0  0
 11 12  2  0  0  0  0
M  END
>  <CHROM.1>
5.65496321,17.20597387,4.40673760,2.27268028,-0.95242056,-2.01926525

>  <Name>
ligand

>  <RI>
0

>  <Rbt.Current_Directory>
/home/itssahil/PROJECTS/Mol_Feturizer/New_Systems/rnas/4LX5

>  <Rbt.Executable>
rbdock ($Id: //depot/dev/client3/rdock/2013.1/src/exe/rbdock.cxx#4 $)

>  <Rbt.Library>
libRbt.so (2013.1, Build901 2013/11/27)

>  <Rbt.Parameter_File>
/export/apps/rDock/src/rDock_2013.1_src/data/scripts/dock_solv.prm

>  <Rbt.Receptor>
prm/blind_docking_40.prm

>  <SCORE>
-15.0494

>  <SCORE.INTER>
-15.0494

>  <SCORE.INTER.CONST>
1

>  <SCORE.INTER.POLAR>
0

>  <SCORE.INTER.ROT>
0

>  <SCORE.INTER.SOLV>
15.3236

>  <SCORE.INTER.VDW>
-18.7408

>  <SCORE.INTER.norm>
-1.25411

>  <SCORE.INTRA>
0

>  <SCORE.INTRA.DIHEDRAL>
0

>  <SCORE.INTRA.DIHEDRAL.0>
0

>  <SCORE.INTRA.POLAR>
0

>  <SCORE.INTRA.POLAR.0>
0

>  <SCORE.INTRA.REPUL>
0

>  <SCORE.INTRA.REPUL.0>
0

>  <SCORE.INTRA.SOLV>
0

>  <SCORE.INTRA.SOLV.lig_0>
-48.1583

>  <SCORE.INTRA.VDW>
0

>  <SCORE.INTRA.VDW.0>
0

>  <SCORE.INTRA.norm>
0

>  <SCORE.RESTR>
0

>  <SCORE.RESTR.CAVITY>
0

>  <SCORE.RESTR.norm>
0

>  <SCORE.SYSTEM>
0

>  <SCORE.SYSTEM.CONST>
0

>  <SCORE.SYSTEM.DIHEDRAL>
0

>  <SCORE.SYSTEM.SOLV>
0

>  <SCORE.SYSTEM.norm>
0

>  <SCORE.heavy>
12

>  <SCORE.norm>
-1.25411

>  <RMSD>
3.060

$$$$
ligand
 OpenBabel11021811503D
libRbt.so/2013.1/901 2013/11/27
 12 13  0  0  0  0  0  0  0  0999 V2000
    4.6390   15.4276    3.9799 C   0  0  0  0  0  0  0  0  0  0  0  0
    5.9881   17.0313    2.9588 C   0  0  0  0  0  0  0  0  0  0  0  0
    3.9566   14.2893    3.8927 N   0  0  0  0  0  0  0  0  0  0  0  0
    6.6232   17.5436    1.8990 N   0  0  0  0  0  0  0  0  0  0  0  0
    5.2745   15.8999    2.8853 N   0  0  0  0  0  0  0  0  0  0  0  0
    4.7085   16.0768    5.1633 N   0  0  0  0  0  0  0  0  0  0  0  0
    6.8550   19.5998    5.4726 N   0  0  0  0  0  0  0  0  0  0  0  0
    6.1864   19.0757    6.5897 C   0  0  0  0  0  0  0  0  0  0  0  0
    5.4470   17.8756    6.4725 N   0  0  0  0  0  0  0  0  0  0  0  0
    5.4091   17.2317    5.2859 C   0  0  0  0  0  0  0  0  0  0  0  0
    6.0795   17.7347    4.1662 C   0  0  0  0  0  0  0  0  0  0  0  0
    6.8090   18.9199    4.2394 C   0  0  0  0  0  0  0  0  0  0  0  0
  1  3  1  0  0  0  0
  1  5  1  0  0  0  0
  1  6  2  0  0  0  0
  2  5  2  0  0  0  0
  2 11  1  0  0  0  0
  2  4  1  0  0  0  0
  6 10  1  0  0  0  0
  7  8  2  0  0  0  0
  7 12  1  0  0  0  0
  8  9  1  0  0  0  0
  9 10  2  0  0  0  0
 10 11  1  0  0  0  0
 11 12  2  0  0  0  0
M  END
>  <CHROM.1>
5.65028551,17.19905769,4.40794246,2.27347019,-0.95568102,-2.01414318

>  <Name>
ligand

>  <RI>
0

>  <Rbt.Current_Directory>
/home/itssahil/PROJECTS/Mol_Feturizer/New_Systems/rnas/4LX5

>  <Rbt.Executable>
rbdock ($Id: //depot/dev/client3/rdock/2013.1/src/exe/rbdock.cxx#4 $)

>  <Rbt.Library>
libRbt.so (2013.1, Build901 2013/11/27)

>  <Rbt.Parameter_File>
/export/apps/rDock/src/rDock_2013.1_src/data/scripts/dock_solv.prm

>  <Rbt.Receptor>
prm/pocket_docking_3.prm

>  <SCORE>
-15.0555

>  <SCORE.INTER>
-15.0555

>  <SCORE.INTER.CONST>
1

>  <SCORE.INTER.POLAR>
0

>  <SCORE.INTER.ROT>
0

>  <SCORE.INTER.SOLV>
15.3263

>  <SCORE.INTER.VDW>
-18.7458

>  <SCORE.INTER.norm>
-1.25463

>  <SCORE.INTRA>
0

>  <SCORE.INTRA.DIHEDRAL>
0

>  <SCORE.INTRA.DIHEDRAL.0>
0

>  <SCORE.INTRA.POLAR>
0

>  <SCORE.INTRA.POLAR.0>
0

>  <SCORE.INTRA.REPUL>
0

>  <SCORE.INTRA.REPUL.0>
0

>  <SCORE.INTRA.SOLV>
0

>  <SCORE.INTRA.SOLV.lig_0>
-48.1583

>  <SCORE.INTRA.VDW>
0

>  <SCORE.INTRA.VDW.0>
0

>  <SCORE.INTRA.norm>
0

>  <SCORE.RESTR>
0

>  <SCORE.RESTR.CAVITY>
0

>  <SCORE.RESTR.norm>
0

>  <SCORE.SYSTEM>
0

>  <SCORE.SYSTEM.CONST>
0

>  <SCORE.SYSTEM.DIHEDRAL>
0

>  <SCORE.SYSTEM.SOLV>
0

>  <SCORE.SYSTEM.norm>
0

>  <SCORE.heavy>
12

>  <SCORE.norm>
-1.25463

>  <RMSD>
3.060

$$$$
ligand
 OpenBabel11021811503D
libRbt.so/2013.1/901 2013/11/27
 12 13  0  0  0  0  0  0  0  0999 V2000
    4.6391   15.4267    3.9792 C   0  0  0  0  0  0  0  0  0  0  0  0
    5.9907   17.0283    2.9578 C   0  0  0  0  0  0  0  0  0  0  0  0
    3.9565   14.2885    3.8927 N   0  0  0  0  0  0  0  0  0  0  0  0
    6.6279   17.5385    1.8983 N   0  0  0  0  0  0  0  0  0  0  0  0
    5.2769   15.8969    2.8850 N   0  0  0  0  0  0  0  0  0  0  0  0
    4.7065   16.0781    5.1615 N   0  0  0  0  0  0  0  0  0  0  0  0
    6.8536   19.6010    5.4686 N   0  0  0  0  0  0  0  0  0  0  0  0
    6.1826   19.0791    6.5853 C   0  0  0  0  0  0  0  0  0  0  0  0
    5.4431   17.8791    6.4689 N   0  0  0  0  0  0  0  0  0  0  0  0
    5.4073   17.2330    5.2834 C   0  0  0  0  0  0  0  0  0  0  0  0
    6.0800   17.7338    4.1641 C   0  0  0  0  0  0  0  0  0  0  0  0
    6.8097   18.9189    4.2365 C   0  0  0  0  0  0  0  0  0  0  0  0
  1  3  1  0  0  0  0
  1  5  1  0  0  0  0
  1  6  2  0  0  0  0
  2  5  2  0  0  0  0
  2 11  1  0  0  0  0
  2  4  1  0  0  0  0
  6 10  1  0  0  0  0
  7  8  2  0  0  0  0
  7 12  1  0  0  0  0
  8  9  1  0  0  0  0
  9 10  2  0  0  0  0
 10 11  1  0  0  0  0
 11 12  2  0  0  0  0
M  END
>  <CHROM.1>
5.65015282,17.19870930,4.40595587,2.27070814,-0.95458928,-2.01819780

>  <Name>
ligand

>  <RI>
0

>  <Rbt.Current_Directory>
/home/itssahil/PROJECTS/Mol_Feturizer/New_Systems/rnas/4LX5

>  <Rbt.Executable>
rbdock ($Id: //depot/dev/client3/rdock/2013.1/src/exe/rbdock.cxx#4 $)

>  <Rbt.Library>
libRbt.so (2013.1, Build901 2013/11/27)

>  <Rbt.Parameter_File>
/export/apps/rDock/src/rDock_2013.1_src/data/scripts/dock_solv.prm

>  <Rbt.Receptor>
prm/pocket_docking_3.prm

>  <SCORE>
-15.0553

>  <SCORE.INTER>
-15.0553

>  <SCORE.INTER.CONST>
1

>  <SCORE.INTER.POLAR>
0

>  <SCORE.INTER.ROT>
0

>  <SCORE.INTER.SOLV>
15.3299

>  <SCORE.INTER.VDW>
-18.7468

>  <SCORE.INTER.norm>
-1.25461

>  <SCORE.INTRA>
0

>  <SCORE.INTRA.DIHEDRAL>
0

>  <SCORE.INTRA.DIHEDRAL.0>
0

>  <SCORE.INTRA.POLAR>
0

>  <SCORE.INTRA.POLAR.0>
0

>  <SCORE.INTRA.REPUL>
0

>  <SCORE.INTRA.REPUL.0>
0

>  <SCORE.INTRA.SOLV>
0

>  <SCORE.INTRA.SOLV.lig_0>
-48.1583

>  <SCORE.INTRA.VDW>
0

>  <SCORE.INTRA.VDW.0>
0

>  <SCORE.INTRA.norm>
0

>  <SCORE.RESTR>
0

>  <SCORE.RESTR.CAVITY>
0

>  <SCORE.RESTR.norm>
0

>  <SCORE.SYSTEM>
0

>  <SCORE.SYSTEM.CONST>
0

>  <SCORE.SYSTEM.DIHEDRAL>
0

>  <SCORE.SYSTEM.SOLV>
0

>  <SCORE.SYSTEM.norm>
0

>  <SCORE.heavy>
12

>  <SCORE.norm>
-1.25461

>  <RMSD>
3.060

$$$$
ligand
 OpenBabel11021811503D
libRbt.so/2013.1/901 2013/11/27
 12 13  0  0  0  0  0  0  0  0999 V2000
    4.6382   15.4293    3.9822 C   0  0  0  0  0  0  0  0  0  0  0  0
    5.9903   17.0294    2.9594 C   0  0  0  0  0  0  0  0  0  0  0  0
    3.9533   14.2924    3.8960 N   0  0  0  0  0  0  0  0  0  0  0  0
    6.6261   17.5396    1.8989 N   0  0  0  0  0  0  0  0  0  0  0  0
    5.2743   15.8995    2.8870 N   0  0  0  0  0  0  0  0  0  0  0  0
    4.7095   16.0792    5.1650 N   0  0  0  0  0  0  0  0  0  0  0  0
    6.8638   19.5978    5.4710 N   0  0  0  0  0  0  0  0  0  0  0  0
    6.1945   19.0760    6.5887 C   0  0  0  0  0  0  0  0  0  0  0  0
    5.4524   17.8774    6.4726 N   0  0  0  0  0  0  0  0  0  0  0  0
    5.4127   17.2327    5.2866 C   0  0  0  0  0  0  0  0  0  0  0  0
    6.0837   17.7335    4.1662 C   0  0  0  0  0  0  0  0  0  0  0  0
    6.8158   18.9172    4.2383 C   0  0  0  0  0  0  0  0  0  0  0  0
  1  3  1  0  0  0  0
  1  5  1  0  0  0  0
  1  6  2  0  0  0  0
  2  5  2  0  0  0  0
  2 11  1  0  0  0  0
  2  4  1  0  0  0  0
  6 10  1  0  0  0  0
  7  8  2  0  0  0  0
  7 12  1  0  0  0  0
  8  9  1  0  0  0  0
  9 10  2  0  0  0  0
 10 11  1  0  0  0  0
 11 12  2  0  0  0  0
M  END
>  <CHROM.1>
5.65345742,17.19889484,4.40851054,2.27569428,-0.95391925,-2.01304152

>  <Name>
ligand

>  <RI>
0

>  <Rbt.Current_Directory>
/home/itssahil/PROJECTS/Mol_Feturizer/New_Systems/rnas/4LX5

>  <Rbt.Executable>
rbdock ($Id: //depot/dev/client3/rdock/2013.1/src/exe/rbdock.cxx#4 $)

>  <Rbt.Library>
libRbt.so (2013.1, Build901 2013/11/27)

>  <Rbt.Parameter_File>
/export/apps/rDock/src/rDock_2013.1_src/data/scripts/dock_solv.prm

>  <Rbt.Receptor>
prm/pocket_docking_3.prm

>  <SCORE>
-15.0561

>  <SCORE.INTER>
-15.0561

>  <SCORE.INTER.CONST>
1

>  <SCORE.INTER.POLAR>
0

>  <SCORE.INTER.ROT>
0

>  <SCORE.INTER.SOLV>
15.3114

>  <SCORE.INTER.VDW>
-18.7412

>  <SCORE.INTER.norm>
-1.25467

>  <SCORE.INTRA>
0

>  <SCORE.INTRA.DIHEDRAL>
0

>  <SCORE.INTRA.DIHEDRAL.0>
0

>  <SCORE.INTRA.POLAR>
0

>  <SCORE.INTRA.POLAR.0>
0

>  <SCORE.INTRA.REPUL>
0

>  <SCORE.INTRA.REPUL.0>
0

>  <SCORE.INTRA.SOLV>
0

>  <SCORE.INTRA.SOLV.lig_0>
-48.1583

>  <SCORE.INTRA.VDW>
0

>  <SCORE.INTRA.VDW.0>
0

>  <SCORE.INTRA.norm>
0

>  <SCORE.RESTR>
0

>  <SCORE.RESTR.CAVITY>
0

>  <SCORE.RESTR.norm>
0

>  <SCORE.SYSTEM>
0

>  <SCORE.SYSTEM.CONST>
0

>  <SCORE.SYSTEM.DIHEDRAL>
0

>  <SCORE.SYSTEM.SOLV>
0

>  <SCORE.SYSTEM.norm>
0

>  <SCORE.heavy>
12

>  <SCORE.norm>
-1.25467

>  <RMSD>
3.060

$$$$
ligand
 OpenBabel11021811503D
libRbt.so/2013.1/901 2013/11/27
 12 13  0  0  0  0  0  0  0  0999 V2000
    4.6391   15.4263    3.9816 C   0  0  0  0  0  0  0  0  0  0  0  0
    5.9932   17.0261    2.9609 C   0  0  0  0  0  0  0  0  0  0  0  0
    3.9535   14.2900    3.8942 N   0  0  0  0  0  0  0  0  0  0  0  0
    6.6300   17.5366    1.9012 N   0  0  0  0  0  0  0  0  0  0  0  0
    5.2763   15.8968    2.8872 N   0  0  0  0  0  0  0  0  0  0  0  0
    4.7102   16.0753    5.1650 N   0  0  0  0  0  0  0  0  0  0  0  0
    6.8668   19.5921    5.4749 N   0  0  0  0  0  0  0  0  0  0  0  0
    6.1964   19.0700    6.5918 C   0  0  0  0  0  0  0  0  0  0  0  0
    5.4535   17.8720    6.4744 N   0  0  0  0  0  0  0  0  0  0  0  0
    5.4142   17.2282    5.2878 C   0  0  0  0  0  0  0  0  0  0  0  0
    6.0863   17.7293    4.1683 C   0  0  0  0  0  0  0  0  0  0  0  0
    6.8192   18.9124    4.2417 C   0  0  0  0  0  0  0  0  0  0  0  0
  1  3  1  0  0  0  0
  1  5  1  0  0  0  0
  1  6  2  0  0  0  0
  2  5  2  0  0  0  0
  2 11  1  0  0  0  0
  2  4  1  0  0  0  0
  6 10  1  0  0  0  0
  7  8  2  0  0  0  0
  7 12  1  0  0  0  0
  8  9  1  0  0  0  0
  9 10  2  0  0  0  0
 10 11  1  0  0  0  0
 11 12  2  0  0  0  0
M  END
>  <CHROM.1>
5.65544973,17.19485162,4.40991363,2.27519147,-0.95295726,-2.01274983

>  <Name>
ligand

>  <RI>
0

>  <Rbt.Current_Directory>
/home/itssahil/PROJECTS/Mol_Feturizer/New_Systems/rnas/4LX5

>  <Rbt.Executable>
rbdock ($Id: //depot/dev/client3/rdock/2013.1/src/exe/rbdock.cxx#4 $)

>  <Rbt.Library>
libRbt.so (2013.1, Build901 2013/11/27)

>  <Rbt.Parameter_File>
/export/apps/rDock/src/rDock_2013.1_src/data/scripts/dock_solv.prm

>  <Rbt.Receptor>
prm/blind_docking_80.prm

>  <SCORE>
-15.0575

>  <SCORE.INTER>
-15.0575

>  <SCORE.INTER.CONST>
1

>  <SCORE.INTER.POLAR>
0

>  <SCORE.INTER.ROT>
0

>  <SCORE.INTER.SOLV>
15.3109

>  <SCORE.INTER.VDW>
-18.7419

>  <SCORE.INTER.norm>
-1.25479

>  <SCORE.INTRA>
0

>  <SCORE.INTRA.DIHEDRAL>
0

>  <SCORE.INTRA.DIHEDRAL.0>
0

>  <SCORE.INTRA.POLAR>
0

>  <SCORE.INTRA.POLAR.0>
0

>  <SCORE.INTRA.REPUL>
0

>  <SCORE.INTRA.REPUL.0>
0

>  <SCORE.INTRA.SOLV>
0

>  <SCORE.INTRA.SOLV.lig_0>
-48.1583

>  <SCORE.INTRA.VDW>
0

>  <SCORE.INTRA.VDW.0>
0

>  <SCORE.INTRA.norm>
0

>  <SCORE.RESTR>
0

>  <SCORE.RESTR.CAVITY>
0

>  <SCORE.RESTR.norm>
0

>  <SCORE.SYSTEM>
0

>  <SCORE.SYSTEM.CONST>
0

>  <SCORE.SYSTEM.DIHEDRAL>
0

>  <SCORE.SYSTEM.SOLV>
0

>  <SCORE.SYSTEM.norm>
0

>  <SCORE.heavy>
12

>  <SCORE.norm>
-1.25479

>  <RMSD>
3.061

$$$$
ligand
 OpenBabel11021811503D
libRbt.so/2013.1/901 2013/11/27
 12 13  0  0  0  0  0  0  0  0999 V2000
    4.6429   15.4282    3.9880 C   0  0  0  0  0  0  0  0  0  0  0  0
    5.9842   17.0347    2.9609 C   0  0  0  0  0  0  0  0  0  0  0  0
    3.9628   14.2883    3.9040 N   0  0  0  0  0  0  0  0  0  0  0  0
    6.6137   17.5480    1.8983 N   0  0  0  0  0  0  0  0  0  0  0  0
    5.2729   15.9016    2.8907 N   0  0  0  0  0  0  0  0  0  0  0  0
    4.7157   16.0780    5.1709 N   0  0  0  0  0  0  0  0  0  0  0  0
    6.8553   19.6061    5.4701 N   0  0  0  0  0  0  0  0  0  0  0  0
    6.1924   19.0809    6.5901 C   0  0  0  0  0  0  0  0  0  0  0  0
    5.4553   17.8791    6.4763 N   0  0  0  0  0  0  0  0  0  0  0  0
    5.4142   17.2346    5.2902 C   0  0  0  0  0  0  0  0  0  0  0  0
    6.0788   17.7387    4.1676 C   0  0  0  0  0  0  0  0  0  0  0  0
    6.8059   18.9257    4.2374 C   0  0  0  0  0  0  0  0  0  0  0  0
  1  3  1  0  0  0  0
  1  5  1  0  0  0  0
  1  6  2  0  0  0  0
  2  5  2  0  0  0  0
  2 11  1  0  0  0  0
  2  4  1  0  0  0  0
  6 10  1  0  0  0  0
  7  8  2  0  0  0  0
  7 12  1  0  0  0  0
  8  9  1  0  0  0  0
  9 10  2  0  0  0  0
 10 11  1  0  0  0  0
 11 12  2  0  0  0  0
M  END
>  <CHROM.1>
5.65183325,17.20217099,4.41127529,2.27813111,-0.95951065,-2.01072009

>  <Name>
ligand

>  <RI>
0

>  <Rbt.Current_Directory>
/home/itssahil/PROJECTS/Mol_Feturizer/New_Systems/rnas/4LX5

>  <Rbt.Executable>
rbdock ($Id: //depot/dev/client3/rdock/2013.1/src/exe/rbdock.cxx#4 $)

>  <Rbt.Library>
libRbt.so (2013.1, Build901 2013/11/27)

>  <Rbt.Parameter_File>
/export/apps/rDock/src/rDock_2013.1_src/data/scripts/dock_solv.prm

>  <Rbt.Receptor>
prm/pocket_docking_3.prm

>  <SCORE>
-15.0542

>  <SCORE.INTER>
-15.0542

>  <SCORE.INTER.CONST>
1

>  <SCORE.INTER.POLAR>
0

>  <SCORE.INTER.ROT>
0

>  <SCORE.INTER.SOLV>
15.352

>  <SCORE.INTER.VDW>
-18.7535

>  <SCORE.INTER.norm>
-1.25452

>  <SCORE.INTRA>
0

>  <SCORE.INTRA.DIHEDRAL>
0

>  <SCORE.INTRA.DIHEDRAL.0>
0

>  <SCORE.INTRA.POLAR>
0

>  <SCORE.INTRA.POLAR.0>
0

>  <SCORE.INTRA.REPUL>
0

>  <SCORE.INTRA.REPUL.0>
0

>  <SCORE.INTRA.SOLV>
0

>  <SCORE.INTRA.SOLV.lig_0>
-48.1583

>  <SCORE.INTRA.VDW>
0

>  <SCORE.INTRA.VDW.0>
0

>  <SCORE.INTRA.norm>
0

>  <SCORE.RESTR>
0

>  <SCORE.RESTR.CAVITY>
0

>  <SCORE.RESTR.norm>
0

>  <SCORE.SYSTEM>
0

>  <SCORE.SYSTEM.CONST>
0

>  <SCORE.SYSTEM.DIHEDRAL>
0

>  <SCORE.SYSTEM.SOLV>
0

>  <SCORE.SYSTEM.norm>
0

>  <SCORE.heavy>
12

>  <SCORE.norm>
-1.25452

>  <RMSD>
3.061

$$$$
ligand
 OpenBabel11021811503D
libRbt.so/2013.1/901 2013/11/27
 12 13  0  0  0  0  0  0  0  0999 V2000
    4.6401   15.4358    3.9885 C   0  0  0  0  0  0  0  0  0  0  0  0
    5.9903   17.0345    2.9610 C   0  0  0  0  0  0  0  0  0  0  0  0
    3.9547   14.2990    3.9050 N   0  0  0  0  0  0  0  0  0  0  0  0
    6.6238   17.5434    1.8986 N   0  0  0  0  0  0  0  0  0  0  0  0
    5.2739   15.9047    2.8914 N   0  0  0  0  0  0  0  0  0  0  0  0
    4.7142   16.0869    5.1705 N   0  0  0  0  0  0  0  0  0  0  0  0
    6.8700   19.6053    5.4680 N   0  0  0  0  0  0  0  0  0  0  0  0
    6.2030   19.0848    6.5877 C   0  0  0  0  0  0  0  0  0  0  0  0
    5.4604   17.8863    6.4746 N   0  0  0  0  0  0  0  0  0  0  0  0
    5.4180   17.2404    5.2893 C   0  0  0  0  0  0  0  0  0  0  0  0
    6.0866   17.7398    4.1669 C   0  0  0  0  0  0  0  0  0  0  0  0
    6.8191   18.9234    4.2361 C   0  0  0  0  0  0  0  0  0  0  0  0
  1  3  1  0  0  0  0
  1  5  1  0  0  0  0
  1  6  2  0  0  0  0
  2  5  2  0  0  0  0
  2 11  1  0  0  0  0
  2  4  1  0  0  0  0
  6 10  1  0  0  0  0
  7  8  2  0  0  0  0
  7 12  1  0  0  0  0
  8  9  1  0  0  0  0
  9 10  2  0  0  0  0
 10 11  1  0  0  0  0
 11 12  2  0  0  0  0
M  END
>  <CHROM.1>
5.65671894,17.20560628,4.41070740,2.27935119,-0.95465474,-2.01109776

>  <Name>
ligand

>  <RI>
0

>  <Rbt.Current_Directory>
/home/itssahil/PROJECTS/Mol_Feturizer/New_Systems/rnas/4LX5

>  <Rbt.Executable>
rbdock ($Id: //depot/dev/client3/rdock/2013.1/src/exe/rbdock.cxx#4 $)

>  <Rbt.Library>
libRbt.so (2013.1, Build901 2013/11/27)

>  <Rbt.Parameter_File>
/export/apps/rDock/src/rDock_2013.1_src/data/scripts/dock_solv.prm

>  <Rbt.Receptor>
prm/pocket_docking_4.prm

>  <SCORE>
-15.0516

>  <SCORE.INTER>
-15.0516

>  <SCORE.INTER.CONST>
1

>  <SCORE.INTER.POLAR>
0

>  <SCORE.INTER.ROT>
0

>  <SCORE.INTER.SOLV>
15.3184

>  <SCORE.INTER.VDW>
-18.7405

>  <SCORE.INTER.norm>
-1.2543

>  <SCORE.INTRA>
0

>  <SCORE.INTRA.DIHEDRAL>
0

>  <SCORE.INTRA.DIHEDRAL.0>
0

>  <SCORE.INTRA.POLAR>
0

>  <SCORE.INTRA.POLAR.0>
0

>  <SCORE.INTRA.REPUL>
0

>  <SCORE.INTRA.REPUL.0>
0

>  <SCORE.INTRA.SOLV>
0

>  <SCORE.INTRA.SOLV.lig_0>
-48.1583

>  <SCORE.INTRA.VDW>
0

>  <SCORE.INTRA.VDW.0>
0

>  <SCORE.INTRA.norm>
0

>  <SCORE.RESTR>
0

>  <SCORE.RESTR.CAVITY>
0

>  <SCORE.RESTR.norm>
0

>  <SCORE.SYSTEM>
0

>  <SCORE.SYSTEM.CONST>
0

>  <SCORE.SYSTEM.DIHEDRAL>
0

>  <SCORE.SYSTEM.SOLV>
0

>  <SCORE.SYSTEM.norm>
0

>  <SCORE.heavy>
12

>  <SCORE.norm>
-1.2543

>  <RMSD>
3.061

$$$$
ligand
 OpenBabel11021811503D
libRbt.so/2013.1/901 2013/11/27
 12 13  0  0  0  0  0  0  0  0999 V2000
    4.6391   15.4253    3.9820 C   0  0  0  0  0  0  0  0  0  0  0  0
    5.9895   17.0278    2.9608 C   0  0  0  0  0  0  0  0  0  0  0  0
    3.9555   14.2877    3.8948 N   0  0  0  0  0  0  0  0  0  0  0  0
    6.6248   17.5397    1.9008 N   0  0  0  0  0  0  0  0  0  0  0  0
    5.2748   15.8972    2.8873 N   0  0  0  0  0  0  0  0  0  0  0  0
    4.7096   16.0743    5.1655 N   0  0  0  0  0  0  0  0  0  0  0  0
    6.8597   19.5950    5.4747 N   0  0  0  0  0  0  0  0  0  0  0  0
    6.1909   19.0715    6.5919 C   0  0  0  0  0  0  0  0  0  0  0  0
    5.4502   17.8722    6.4747 N   0  0  0  0  0  0  0  0  0  0  0  0
    5.4114   17.2285    5.2881 C   0  0  0  0  0  0  0  0  0  0  0  0
    6.0820   17.7310    4.1683 C   0  0  0  0  0  0  0  0  0  0  0  0
    6.8127   18.9155    4.2414 C   0  0  0  0  0  0  0  0  0  0  0  0
  1  3  1  0  0  0  0
  1  5  1  0  0  0  0
  1  6  2  0  0  0  0
  2  5  2  0  0  0  0
  2 11  1  0  0  0  0
  2  4  1  0  0  0  0
  6 10  1  0  0  0  0
  7  8  2  0  0  0  0
  7 12  1  0  0  0  0
  8  9  1  0  0  0  0
  9 10  2  0  0  0  0
 10 11  1  0  0  0  0
 11 12  2  0  0  0  0
M  END
>  <CHROM.1>
5.65229627,17.19570908,4.41000952,2.27464852,-0.95490025,-2.01303756

>  <Name>
ligand

>  <RI>
0

>  <Rbt.Current_Directory>
/home/itssahil/PROJECTS/Mol_Feturizer/New_Systems/rnas/4LX5

>  <Rbt.Executable>
rbdock ($Id: //depot/dev/client3/rdock/2013.1/src/exe/rbdock.cxx#4 $)

>  <Rbt.Library>
libRbt.so (2013.1, Build901 2013/11/27)

>  <Rbt.Parameter_File>
/export/apps/rDock/src/rDock_2013.1_src/data/scripts/dock_solv.prm

>  <Rbt.Receptor>
prm/pocket_docking_4.prm

>  <SCORE>
-15.0561

>  <SCORE.INTER>
-15.0561

>  <SCORE.INTER.CONST>
1

>  <SCORE.INTER.POLAR>
0

>  <SCORE.INTER.ROT>
0

>  <SCORE.INTER.SOLV>
15.3197

>  <SCORE.INTER.VDW>
-18.744

>  <SCORE.INTER.norm>
-1.25467

>  <SCORE.INTRA>
0

>  <SCORE.INTRA.DIHEDRAL>
0

>  <SCORE.INTRA.DIHEDRAL.0>
0

>  <SCORE.INTRA.POLAR>
0

>  <SCORE.INTRA.POLAR.0>
0

>  <SCORE.INTRA.REPUL>
0

>  <SCORE.INTRA.REPUL.0>
0

>  <SCORE.INTRA.SOLV>
0

>  <SCORE.INTRA.SOLV.lig_0>
-48.1583

>  <SCORE.INTRA.VDW>
0

>  <SCORE.INTRA.VDW.0>
0

>  <SCORE.INTRA.norm>
0

>  <SCORE.RESTR>
0

>  <SCORE.RESTR.CAVITY>
0

>  <SCORE.RESTR.norm>
0

>  <SCORE.SYSTEM>
0

>  <SCORE.SYSTEM.CONST>
0

>  <SCORE.SYSTEM.DIHEDRAL>
0

>  <SCORE.SYSTEM.SOLV>
0

>  <SCORE.SYSTEM.norm>
0

>  <SCORE.heavy>
12

>  <SCORE.norm>
-1.25467

>  <RMSD>
3.061

$$$$
ligand
 OpenBabel11021811503D
libRbt.so/2013.1/901 2013/11/27
 12 13  0  0  0  0  0  0  0  0999 V2000
    4.6387   15.4190    3.9879 C   0  0  0  0  0  0  0  0  0  0  0  0
    5.9823   17.0190    2.9537 C   0  0  0  0  0  0  0  0  0  0  0  0
    3.9571   14.2797    3.9090 N   0  0  0  0  0  0  0  0  0  0  0  0
    6.6128   17.5266    1.8889 N   0  0  0  0  0  0  0  0  0  0  0  0
    5.2696   15.8865    2.8886 N   0  0  0  0  0  0  0  0  0  0  0  0
    4.7121   16.0742    5.1678 N   0  0  0  0  0  0  0  0  0  0  0  0
    6.8564   19.6007    5.4513 N   0  0  0  0  0  0  0  0  0  0  0  0
    6.1926   19.0816    6.5736 C   0  0  0  0  0  0  0  0  0  0  0  0
    5.4539   17.8802    6.4651 N   0  0  0  0  0  0  0  0  0  0  0  0
    5.4121   17.2304    5.2820 C   0  0  0  0  0  0  0  0  0  0  0  0
    6.0777   17.7284    4.1572 C   0  0  0  0  0  0  0  0  0  0  0  0
    6.8063   18.9147    4.2217 C   0  0  0  0  0  0  0  0  0  0  0  0
  1  3  1  0  0  0  0
  1  5  1  0  0  0  0
  1  6  2  0  0  0  0
  2  5  2  0  0  0  0
  2 11  1  0  0  0  0
  2  4  1  0  0  0  0
  6 10  1  0  0  0  0
  7  8  2  0  0  0  0
  7 12  1  0  0  0  0
  8  9  1  0  0  0  0
  9 10  2  0  0  0  0
 10 11  1  0  0  0  0
 11 12  2  0  0  0  0
M  END
>  <CHROM.1>
5.64992647,17.19357183,4.40324827,2.27877500,-0.95821356,-2.01478534

>  <Name>
ligand

>  <RI>
0

>  <Rbt.Current_Directory>
/home/itssahil/PROJECTS/Mol_Feturizer/New_Systems/rnas/4LX5

>  <Rbt.Executable>
rbdock ($Id: //depot/dev/client3/rdock/2013.1/src/exe/rbdock.cxx#4 $)

>  <Rbt.Library>
libRbt.so (2013.1, Build901 2013/11/27)

>  <Rbt.Parameter_File>
/export/apps/rDock/src/rDock_2013.1_src/data/scripts/dock_solv.prm

>  <Rbt.Receptor>
prm/pocket_docking_6.prm

>  <SCORE>
-15.0273

>  <SCORE.INTER>
-15.0273

>  <SCORE.INTER.CONST>
1

>  <SCORE.INTER.POLAR>
0

>  <SCORE.INTER.ROT>
0

>  <SCORE.INTER.SOLV>
15.3305

>  <SCORE.INTER.VDW>
-18.7284

>  <SCORE.INTER.norm>
-1.25227

>  <SCORE.INTRA>
0

>  <SCORE.INTRA.DIHEDRAL>
0

>  <SCORE.INTRA.DIHEDRAL.0>
0

>  <SCORE.INTRA.POLAR>
0

>  <SCORE.INTRA.POLAR.0>
0

>  <SCORE.INTRA.REPUL>
0

>  <SCORE.INTRA.REPUL.0>
0

>  <SCORE.INTRA.SOLV>
0

>  <SCORE.INTRA.SOLV.lig_0>
-48.1583

>  <SCORE.INTRA.VDW>
0

>  <SCORE.INTRA.VDW.0>
0

>  <SCORE.INTRA.norm>
0

>  <SCORE.RESTR>
0

>  <SCORE.RESTR.CAVITY>
0

>  <SCORE.RESTR.norm>
0

>  <SCORE.SYSTEM>
0

>  <SCORE.SYSTEM.CONST>
0

>  <SCORE.SYSTEM.DIHEDRAL>
0

>  <SCORE.SYSTEM.SOLV>
0

>  <SCORE.SYSTEM.norm>
0

>  <SCORE.heavy>
12

>  <SCORE.norm>
-1.25227

>  <RMSD>
3.061

$$$$
ligand
 OpenBabel11021811503D
libRbt.so/2013.1/901 2013/11/27
 12 13  0  0  0  0  0  0  0  0999 V2000
    4.6587   15.4537    3.9923 C   0  0  0  0  0  0  0  0  0  0  0  0
    6.0430   17.0340    2.9817 C   0  0  0  0  0  0  0  0  0  0  0  0
    3.9681   14.3205    3.9036 N   0  0  0  0  0  0  0  0  0  0  0  0
    6.7044   17.5286    1.9296 N   0  0  0  0  0  0  0  0  0  0  0  0
    5.3210   15.9080    2.9060 N   0  0  0  0  0  0  0  0  0  0  0  0
    4.7094   16.1157    5.1695 N   0  0  0  0  0  0  0  0  0  0  0  0
    6.8805   19.6232    5.4840 N   0  0  0  0  0  0  0  0  0  0  0  0
    6.1841   19.1178    6.5927 C   0  0  0  0  0  0  0  0  0  0  0  0
    5.4366   17.9229    6.4736 N   0  0  0  0  0  0  0  0  0  0  0  0
    5.4177   17.2659    5.2938 C   0  0  0  0  0  0  0  0  0  0  0  0
    6.1156   17.7503    4.1827 C   0  0  0  0  0  0  0  0  0  0  0  0
    6.8540   18.9298    4.2578 C   0  0  0  0  0  0  0  0  0  0  0  0
  1  3  1  0  0  0  0
  1  5  1  0  0  0  0
  1  6  2  0  0  0  0
  2  5  2  0  0  0  0
  2 11  1  0  0  0  0
  2  4  1  0  0  0  0
  6 10  1  0  0  0  0
  7  8  2  0  0  0  0
  7 12  1  0  0  0  0
  8  9  1  0  0  0  0
  9 10  2  0  0  0  0
 10 11  1  0  0  0  0
 11 12  2  0  0  0  0
M  END
>  <CHROM.1>
5.67669946,17.22112473,4.42145038,2.24824013,-0.93856806,-2.04592700

>  <Name>
ligand

>  <RI>
0

>  <Rbt.Current_Directory>
/home/itssahil/PROJECTS/Mol_Feturizer/New_Systems/rnas/4LX5

>  <Rbt.Executable>
rbdock ($Id: //depot/dev/client3/rdock/2013.1/src/exe/rbdock.cxx#4 $)

>  <Rbt.Library>
libRbt.so (2013.1, Build901 2013/11/27)

>  <Rbt.Parameter_File>
/export/apps/rDock/src/rDock_2013.1_src/data/scripts/dock_solv.prm

>  <Rbt.Receptor>
prm/pocket_docking_6.prm

>  <SCORE>
-15.026

>  <SCORE.INTER>
-15.026

>  <SCORE.INTER.CONST>
1

>  <SCORE.INTER.POLAR>
0

>  <SCORE.INTER.ROT>
0

>  <SCORE.INTER.SOLV>
15.4586

>  <SCORE.INTER.VDW>
-18.7702

>  <SCORE.INTER.norm>
-1.25217

>  <SCORE.INTRA>
0

>  <SCORE.INTRA.DIHEDRAL>
0

>  <SCORE.INTRA.DIHEDRAL.0>
0

>  <SCORE.INTRA.POLAR>
0

>  <SCORE.INTRA.POLAR.0>
0

>  <SCORE.INTRA.REPUL>
0

>  <SCORE.INTRA.REPUL.0>
0

>  <SCORE.INTRA.SOLV>
0

>  <SCORE.INTRA.SOLV.lig_0>
-48.1583

>  <SCORE.INTRA.VDW>
0

>  <SCORE.INTRA.VDW.0>
0

>  <SCORE.INTRA.norm>
0

>  <SCORE.RESTR>
0

>  <SCORE.RESTR.CAVITY>
0

>  <SCORE.RESTR.norm>
0

>  <SCORE.SYSTEM>
0

>  <SCORE.SYSTEM.CONST>
0

>  <SCORE.SYSTEM.DIHEDRAL>
0

>  <SCORE.SYSTEM.SOLV>
0

>  <SCORE.SYSTEM.norm>
0

>  <SCORE.heavy>
12

>  <SCORE.norm>
-1.25217

>  <RMSD>
3.061

$$$$
ligand
 OpenBabel11021811503D
libRbt.so/2013.1/901 2013/11/27
 12 13  0  0  0  0  0  0  0  0999 V2000
    4.6435   15.4271    3.9867 C   0  0  0  0  0  0  0  0  0  0  0  0
    5.9952   17.0277    2.9642 C   0  0  0  0  0  0  0  0  0  0  0  0
    3.9589   14.2901    3.9004 N   0  0  0  0  0  0  0  0  0  0  0  0
    6.6309   17.5382    1.9038 N   0  0  0  0  0  0  0  0  0  0  0  0
    5.2795   15.8976    2.8916 N   0  0  0  0  0  0  0  0  0  0  0  0
    4.7146   16.0769    5.1697 N   0  0  0  0  0  0  0  0  0  0  0  0
    6.8679   19.5960    5.4761 N   0  0  0  0  0  0  0  0  0  0  0  0
    6.1986   19.0739    6.5937 C   0  0  0  0  0  0  0  0  0  0  0  0
    5.4569   17.8752    6.4775 N   0  0  0  0  0  0  0  0  0  0  0  0
    5.4175   17.2306    5.2914 C   0  0  0  0  0  0  0  0  0  0  0  0
    6.0884   17.7317    4.1711 C   0  0  0  0  0  0  0  0  0  0  0  0
    6.8201   18.9156    4.2433 C   0  0  0  0  0  0  0  0  0  0  0  0
  1  3  1  0  0  0  0
  1  5  1  0  0  0  0
  1  6  2  0  0  0  0
  2  5  2  0  0  0  0
  2 11  1  0  0  0  0
  2  4  1  0  0  0  0
  6 10  1  0  0  0  0
  7  8  2  0  0  0  0
  7 12  1  0  0  0  0
  8  9  1  0  0  0  0
  9 10  2  0  0  0  0
 10 11  1  0  0  0  0
 11 12  2  0  0  0  0
M  END
>  <CHROM.1>
5.65826147,17.19695531,4.41330703,2.27542054,-0.95415941,-2.01315026

>  <Name>
ligand

>  <RI>
0

>  <Rbt.Current_Directory>
/home/itssahil/PROJECTS/Mol_Feturizer/New_Systems/rnas/4LX5

>  <Rbt.Executable>
rbdock ($Id: //depot/dev/client3/rdock/2013.1/src/exe/rbdock.cxx#4 $)

>  <Rbt.Library>
libRbt.so (2013.1, Build901 2013/11/27)

>  <Rbt.Parameter_File>
/export/apps/rDock/src/rDock_2013.1_src/data/scripts/dock_solv.prm

>  <Rbt.Receptor>
prm/pocket_docking_7.prm

>  <SCORE>
-15.0546

>  <SCORE.INTER>
-15.0546

>  <SCORE.INTER.CONST>
1

>  <SCORE.INTER.POLAR>
0

>  <SCORE.INTER.ROT>
0

>  <SCORE.INTER.SOLV>
15.3363

>  <SCORE.INTER.VDW>
-18.7485

>  <SCORE.INTER.norm>
-1.25455

>  <SCORE.INTRA>
0

>  <SCORE.INTRA.DIHEDRAL>
0

>  <SCORE.INTRA.DIHEDRAL.0>
0

>  <SCORE.INTRA.POLAR>
0

>  <SCORE.INTRA.POLAR.0>
0

>  <SCORE.INTRA.REPUL>
0

>  <SCORE.INTRA.REPUL.0>
0

>  <SCORE.INTRA.SOLV>
0

>  <SCORE.INTRA.SOLV.lig_0>
-48.1583

>  <SCORE.INTRA.VDW>
0

>  <SCORE.INTRA.VDW.0>
0

>  <SCORE.INTRA.norm>
0

>  <SCORE.RESTR>
0

>  <SCORE.RESTR.CAVITY>
0

>  <SCORE.RESTR.norm>
0

>  <SCORE.SYSTEM>
0

>  <SCORE.SYSTEM.CONST>
0

>  <SCORE.SYSTEM.DIHEDRAL>
0

>  <SCORE.SYSTEM.SOLV>
0

>  <SCORE.SYSTEM.norm>
0

>  <SCORE.heavy>
12

>  <SCORE.norm>
-1.25455

>  <RMSD>
3.061

$$$$
ligand
 OpenBabel11021811503D
libRbt.so/2013.1/901 2013/11/27
 12 13  0  0  0  0  0  0  0  0999 V2000
    4.6330   15.4239    3.9769 C   0  0  0  0  0  0  0  0  0  0  0  0
    5.9895   17.0248    2.9610 C   0  0  0  0  0  0  0  0  0  0  0  0
    3.9483   14.2872    3.8870 N   0  0  0  0  0  0  0  0  0  0  0  0
    6.6296   17.5358    1.9036 N   0  0  0  0  0  0  0  0  0  0  0  0
    5.2736   15.8950    2.8847 N   0  0  0  0  0  0  0  0  0  0  0  0
    4.6996   16.0728    5.1606 N   0  0  0  0  0  0  0  0  0  0  0  0
    6.8531   19.5908    5.4784 N   0  0  0  0  0  0  0  0  0  0  0  0
    6.1792   19.0681    6.5929 C   0  0  0  0  0  0  0  0  0  0  0  0
    5.4375   17.8697    6.4728 N   0  0  0  0  0  0  0  0  0  0  0  0
    5.4025   17.2261    5.2860 C   0  0  0  0  0  0  0  0  0  0  0  0
    6.0781   17.7277    4.1689 C   0  0  0  0  0  0  0  0  0  0  0  0
    6.8100   18.9113    4.2449 C   0  0  0  0  0  0  0  0  0  0  0  0
  1  3  1  0  0  0  0
  1  5  1  0  0  0  0
  1  6  2  0  0  0  0
  2  5  2  0  0  0  0
  2 11  1  0  0  0  0
  2  4  1  0  0  0  0
  6 10  1  0  0  0  0
  7  8  2  0  0  0  0
  7 12  1  0  0  0  0
  8  9  1  0  0  0  0
  9 10  2  0  0  0  0
 10 11  1  0  0  0  0
 11 12  2  0  0  0  0
M  END
>  <CHROM.1>
5.64676731,17.19302117,4.40891182,2.26947527,-0.95206376,-2.01723518

>  <Name>
ligand

>  <RI>
0

>  <Rbt.Current_Directory>
/home/itssahil/PROJECTS/Mol_Feturizer/New_Systems/rnas/4LX5

>  <Rbt.Executable>
rbdock ($Id: //depot/dev/client3/rdock/2013.1/src/exe/rbdock.cxx#4 $)

>  <Rbt.Library>
libRbt.so (2013.1, Build901 2013/11/27)

>  <Rbt.Parameter_File>
/export/apps/rDock/src/rDock_2013.1_src/data/scripts/dock_solv.prm

>  <Rbt.Receptor>
prm/pocket_docking_8.prm

>  <SCORE>
-15.0493

>  <SCORE.INTER>
-15.0493

>  <SCORE.INTER.CONST>
1

>  <SCORE.INTER.POLAR>
0

>  <SCORE.INTER.ROT>
0

>  <SCORE.INTER.SOLV>
15.2879

>  <SCORE.INTER.VDW>
-18.7288

>  <SCORE.INTER.norm>
-1.25411

>  <SCORE.INTRA>
0

>  <SCORE.INTRA.DIHEDRAL>
0

>  <SCORE.INTRA.DIHEDRAL.0>
0

>  <SCORE.INTRA.POLAR>
0

>  <SCORE.INTRA.POLAR.0>
0

>  <SCORE.INTRA.REPUL>
0

>  <SCORE.INTRA.REPUL.0>
0

>  <SCORE.INTRA.SOLV>
0

>  <SCORE.INTRA.SOLV.lig_0>
-48.1583

>  <SCORE.INTRA.VDW>
0

>  <SCORE.INTRA.VDW.0>
0

>  <SCORE.INTRA.norm>
0

>  <SCORE.RESTR>
0

>  <SCORE.RESTR.CAVITY>
0

>  <SCORE.RESTR.norm>
0

>  <SCORE.SYSTEM>
0

>  <SCORE.SYSTEM.CONST>
0

>  <SCORE.SYSTEM.DIHEDRAL>
0

>  <SCORE.SYSTEM.SOLV>
0

>  <SCORE.SYSTEM.norm>
0

>  <SCORE.heavy>
12

>  <SCORE.norm>
-1.25411

>  <RMSD>
3.061

$$$$
ligand
 OpenBabel11021811503D
libRbt.so/2013.1/901 2013/11/27
 12 13  0  0  0  0  0  0  0  0999 V2000
    4.6487   15.4663    3.9959 C   0  0  0  0  0  0  0  0  0  0  0  0
    6.0410   17.0377    2.9827 C   0  0  0  0  0  0  0  0  0  0  0  0
    3.9491   14.3386    3.9079 N   0  0  0  0  0  0  0  0  0  0  0  0
    6.7021   17.5292    1.9289 N   0  0  0  0  0  0  0  0  0  0  0  0
    5.3101   15.9175    2.9078 N   0  0  0  0  0  0  0  0  0  0  0  0
    4.7092   16.1257    5.1741 N   0  0  0  0  0  0  0  0  0  0  0  0
    6.9084   19.6158    5.4864 N   0  0  0  0  0  0  0  0  0  0  0  0
    6.2126   19.1137    6.5969 C   0  0  0  0  0  0  0  0  0  0  0  0
    5.4554   17.9248    6.4786 N   0  0  0  0  0  0  0  0  0  0  0  0
    5.4268   17.2701    5.2977 C   0  0  0  0  0  0  0  0  0  0  0  0
    6.1239   17.7512    4.1847 C   0  0  0  0  0  0  0  0  0  0  0  0
    6.8716   18.9249    4.2590 C   0  0  0  0  0  0  0  0  0  0  0  0
  1  3  1  0  0  0  0
  1  5  1  0  0  0  0
  1  6  2  0  0  0  0
  2  5  2  0  0  0  0
  2 11  1  0  0  0  0
  2  4  1  0  0  0  0
  6 10  1  0  0  0  0
  7  8  2  0  0  0  0
  7 12  1  0  0  0  0
  8  9  1  0  0  0  0
  9 10  2  0  0  0  0
 10 11  1  0  0  0  0
 11 12  2  0  0  0  0
M  END
>  <CHROM.1>
5.68193528,17.22500403,4.42422716,2.26009813,-0.93352131,-2.03453525

>  <Name>
ligand

>  <RI>
0

>  <Rbt.Current_Directory>
/home/itssahil/PROJECTS/Mol_Feturizer/New_Systems/rnas/4LX5

>  <Rbt.Executable>
rbdock ($Id: //depot/dev/client3/rdock/2013.1/src/exe/rbdock.cxx#4 $)

>  <Rbt.Library>
libRbt.so (2013.1, Build901 2013/11/27)

>  <Rbt.Parameter_File>
/export/apps/rDock/src/rDock_2013.1_src/data/scripts/dock_solv.prm

>  <Rbt.Receptor>
prm/blind_docking_60.prm

>  <SCORE>
-15.0283

>  <SCORE.INTER>
-15.0283

>  <SCORE.INTER.CONST>
1

>  <SCORE.INTER.POLAR>
0

>  <SCORE.INTER.ROT>
0

>  <SCORE.INTER.SOLV>
15.3565

>  <SCORE.INTER.VDW>
-18.7377

>  <SCORE.INTER.norm>
-1.25236

>  <SCORE.INTRA>
0

>  <SCORE.INTRA.DIHEDRAL>
0

>  <SCORE.INTRA.DIHEDRAL.0>
0

>  <SCORE.INTRA.POLAR>
0

>  <SCORE.INTRA.POLAR.0>
0

>  <SCORE.INTRA.REPUL>
0

>  <SCORE.INTRA.REPUL.0>
0

>  <SCORE.INTRA.SOLV>
0

>  <SCORE.INTRA.SOLV.lig_0>
-48.1583

>  <SCORE.INTRA.VDW>
0

>  <SCORE.INTRA.VDW.0>
0

>  <SCORE.INTRA.norm>
0

>  <SCORE.RESTR>
0

>  <SCORE.RESTR.CAVITY>
0

>  <SCORE.RESTR.norm>
0

>  <SCORE.SYSTEM>
0

>  <SCORE.SYSTEM.CONST>
0

>  <SCORE.SYSTEM.DIHEDRAL>
0

>  <SCORE.SYSTEM.SOLV>
0

>  <SCORE.SYSTEM.norm>
0

>  <SCORE.heavy>
12

>  <SCORE.norm>
-1.25236

>  <RMSD>
3.062

$$$$
ligand
 OpenBabel11021811503D
libRbt.so/2013.1/901 2013/11/27
 12 13  0  0  0  0  0  0  0  0999 V2000
    4.6358   15.4569    3.9986 C   0  0  0  0  0  0  0  0  0  0  0  0
    5.9969   17.0389    2.9595 C   0  0  0  0  0  0  0  0  0  0  0  0
    3.9430   14.3241    3.9236 N   0  0  0  0  0  0  0  0  0  0  0  0
    6.6340   17.5355    1.8935 N   0  0  0  0  0  0  0  0  0  0  0  0
    5.2730   15.9133    2.8982 N   0  0  0  0  0  0  0  0  0  0  0  0
    4.7138   16.1165    5.1757 N   0  0  0  0  0  0  0  0  0  0  0  0
    6.8927   19.6228    5.4472 N   0  0  0  0  0  0  0  0  0  0  0  0
    6.2219   19.1153    6.5706 C   0  0  0  0  0  0  0  0  0  0  0  0
    5.4715   17.9209    6.4663 N   0  0  0  0  0  0  0  0  0  0  0  0
    5.4251   17.2662    5.2859 C   0  0  0  0  0  0  0  0  0  0  0  0
    6.0974   17.7527    4.1601 C   0  0  0  0  0  0  0  0  0  0  0  0
    6.8376   18.9319    4.2205 C   0  0  0  0  0  0  0  0  0  0  0  0
  1  3  1  0  0  0  0
  1  5  1  0  0  0  0
  1  6  2  0  0  0  0
  2  5  2  0  0  0  0
  2 11  1  0  0  0  0
  2  4  1  0  0  0  0
  6 10  1  0  0  0  0
  7  8  2  0  0  0  0
  7 12  1  0  0  0  0
  8  9  1  0  0  0  0
  9 10  2  0  0  0  0
 10 11  1  0  0  0  0
 11 12  2  0  0  0  0
M  END
>  <CHROM.1>
5.66393839,17.22319863,4.40777126,2.28367922,-0.94855267,-2.01518500

>  <Name>
ligand

>  <RI>
0

>  <Rbt.Current_Directory>
/home/itssahil/PROJECTS/Mol_Feturizer/New_Systems/rnas/4LX5

>  <Rbt.Executable>
rbdock ($Id: //depot/dev/client3/rdock/2013.1/src/exe/rbdock.cxx#4 $)

>  <Rbt.Library>
libRbt.so (2013.1, Build901 2013/11/27)

>  <Rbt.Parameter_File>
/export/apps/rDock/src/rDock_2013.1_src/data/scripts/dock_solv.prm

>  <Rbt.Receptor>
prm/blind_docking_80.prm

>  <SCORE>
-15.0679

>  <SCORE.INTER>
-15.0679

>  <SCORE.INTER.CONST>
1

>  <SCORE.INTER.POLAR>
0

>  <SCORE.INTER.ROT>
0

>  <SCORE.INTER.SOLV>
15.2791

>  <SCORE.INTER.VDW>
-18.7383

>  <SCORE.INTER.norm>
-1.25566

>  <SCORE.INTRA>
0

>  <SCORE.INTRA.DIHEDRAL>
0

>  <SCORE.INTRA.DIHEDRAL.0>
0

>  <SCORE.INTRA.POLAR>
0

>  <SCORE.INTRA.POLAR.0>
0

>  <SCORE.INTRA.REPUL>
0

>  <SCORE.INTRA.REPUL.0>
0

>  <SCORE.INTRA.SOLV>
0

>  <SCORE.INTRA.SOLV.lig_0>
-48.1583

>  <SCORE.INTRA.VDW>
0

>  <SCORE.INTRA.VDW.0>
0

>  <SCORE.INTRA.norm>
0

>  <SCORE.RESTR>
0

>  <SCORE.RESTR.CAVITY>
0

>  <SCORE.RESTR.norm>
0

>  <SCORE.SYSTEM>
0

>  <SCORE.SYSTEM.CONST>
0

>  <SCORE.SYSTEM.DIHEDRAL>
0

>  <SCORE.SYSTEM.SOLV>
0

>  <SCORE.SYSTEM.norm>
0

>  <SCORE.heavy>
12

>  <SCORE.norm>
-1.25566

>  <RMSD>
3.062

$$$$
ligand
 OpenBabel11021811503D
libRbt.so/2013.1/901 2013/11/27
 12 13  0  0  0  0  0  0  0  0999 V2000
    4.6402   15.4384    3.9915 C   0  0  0  0  0  0  0  0  0  0  0  0
    5.9959   17.0308    2.9615 C   0  0  0  0  0  0  0  0  0  0  0  0
    3.9517   14.3034    3.9102 N   0  0  0  0  0  0  0  0  0  0  0  0
    6.6318   17.5354    1.8984 N   0  0  0  0  0  0  0  0  0  0  0  0
    5.2763   15.9029    2.8939 N   0  0  0  0  0  0  0  0  0  0  0  0
    4.7151   16.0921    5.1721 N   0  0  0  0  0  0  0  0  0  0  0  0
    6.8807   19.6051    5.4631 N   0  0  0  0  0  0  0  0  0  0  0  0
    6.2112   19.0892    6.5835 C   0  0  0  0  0  0  0  0  0  0  0  0
    5.4653   17.8925    6.4725 N   0  0  0  0  0  0  0  0  0  0  0  0
    5.4221   17.2439    5.2887 C   0  0  0  0  0  0  0  0  0  0  0  0
    6.0931   17.7387    4.1658 C   0  0  0  0  0  0  0  0  0  0  0  0
    6.8289   18.9204    4.2328 C   0  0  0  0  0  0  0  0  0  0  0  0
  1  3  1  0  0  0  0
  1  5  1  0  0  0  0
  1  6  2  0  0  0  0
  2  5  2  0  0  0  0
  2 11  1  0  0  0  0
  2  4  1  0  0  0  0
  6 10  1  0  0  0  0
  7  8  2  0  0  0  0
  7 12  1  0  0  0  0
  8  9  1  0  0  0  0
  9 10  2  0  0  0  0
 10 11  1  0  0  0  0
 11 12  2  0  0  0  0
M  END
>  <CHROM.1>
5.66150992,17.20632445,4.41045888,2.28003154,-0.95168104,-2.01294858

>  <Name>
ligand

>  <RI>
0

>  <Rbt.Current_Directory>
/home/itssahil/PROJECTS/Mol_Feturizer/New_Systems/rnas/4LX5

>  <Rbt.Executable>
rbdock ($Id: //depot/dev/client3/rdock/2013.1/src/exe/rbdock.cxx#4 $)

>  <Rbt.Library>
libRbt.so (2013.1, Build901 2013/11/27)

>  <Rbt.Parameter_File>
/export/apps/rDock/src/rDock_2013.1_src/data/scripts/dock_solv.prm

>  <Rbt.Receptor>
prm/pocket_docking_4.prm

>  <SCORE>
-15.0502

>  <SCORE.INTER>
-15.0502

>  <SCORE.INTER.CONST>
1

>  <SCORE.INTER.POLAR>
0

>  <SCORE.INTER.ROT>
0

>  <SCORE.INTER.SOLV>
15.3074

>  <SCORE.INTER.VDW>
-18.7359

>  <SCORE.INTER.norm>
-1.25418

>  <SCORE.INTRA>
0

>  <SCORE.INTRA.DIHEDRAL>
0

>  <SCORE.INTRA.DIHEDRAL.0>
0

>  <SCORE.INTRA.POLAR>
0

>  <SCORE.INTRA.POLAR.0>
0

>  <SCORE.INTRA.REPUL>
0

>  <SCORE.INTRA.REPUL.0>
0

>  <SCORE.INTRA.SOLV>
0

>  <SCORE.INTRA.SOLV.lig_0>
-48.1583

>  <SCORE.INTRA.VDW>
0

>  <SCORE.INTRA.VDW.0>
0

>  <SCORE.INTRA.norm>
0

>  <SCORE.RESTR>
0

>  <SCORE.RESTR.CAVITY>
0

>  <SCORE.RESTR.norm>
0

>  <SCORE.SYSTEM>
0

>  <SCORE.SYSTEM.CONST>
0

>  <SCORE.SYSTEM.DIHEDRAL>
0

>  <SCORE.SYSTEM.SOLV>
0

>  <SCORE.SYSTEM.norm>
0

>  <SCORE.heavy>
12

>  <SCORE.norm>
-1.25418

>  <RMSD>
3.062

$$$$
ligand
 OpenBabel11021811503D
libRbt.so/2013.1/901 2013/11/27
 12 13  0  0  0  0  0  0  0  0999 V2000
    4.6396   15.4176    3.9933 C   0  0  0  0  0  0  0  0  0  0  0  0
    5.9791   17.0171    2.9529 C   0  0  0  0  0  0  0  0  0  0  0  0
    3.9578   14.2782    3.9177 N   0  0  0  0  0  0  0  0  0  0  0  0
    6.6053   17.5242    1.8853 N   0  0  0  0  0  0  0  0  0  0  0  0
    5.2661   15.8846    2.8912 N   0  0  0  0  0  0  0  0  0  0  0  0
    4.7178   16.0734    5.1725 N   0  0  0  0  0  0  0  0  0  0  0  0
    6.8630   19.6001    5.4457 N   0  0  0  0  0  0  0  0  0  0  0  0
    6.2037   19.0816    6.5708 C   0  0  0  0  0  0  0  0  0  0  0  0
    5.4647   17.8802    6.4660 N   0  0  0  0  0  0  0  0  0  0  0  0
    5.4182   17.2297    5.2833 C   0  0  0  0  0  0  0  0  0  0  0  0
    6.0792   17.7272    4.1556 C   0  0  0  0  0  0  0  0  0  0  0  0
    6.8080   18.9135    4.2166 C   0  0  0  0  0  0  0  0  0  0  0  0
  1  3  1  0  0  0  0
  1  5  1  0  0  0  0
  1  6  2  0  0  0  0
  2  5  2  0  0  0  0
  2 11  1  0  0  0  0
  2  4  1  0  0  0  0
  6 10  1  0  0  0  0
  7  8  2  0  0  0  0
  7 12  1  0  0  0  0
  8  9  1  0  0  0  0
  9 10  2  0  0  0  0
 10 11  1  0  0  0  0
 11 12  2  0  0  0  0
M  END
>  <CHROM.1>
5.65246675,17.19244202,4.40364796,2.28506120,-0.95995825,-2.01014864

>  <Name>
ligand

>  <RI>
0

>  <Rbt.Current_Directory>
/home/itssahil/PROJECTS/Mol_Feturizer/New_Systems/rnas/4LX5

>  <Rbt.Executable>
rbdock ($Id: //depot/dev/client3/rdock/2013.1/src/exe/rbdock.cxx#4 $)

>  <Rbt.Library>
libRbt.so (2013.1, Build901 2013/11/27)

>  <Rbt.Parameter_File>
/export/apps/rDock/src/rDock_2013.1_src/data/scripts/dock_solv.prm

>  <Rbt.Receptor>
prm/pocket_docking_5.prm

>  <SCORE>
-15.0307

>  <SCORE.INTER>
-15.0307

>  <SCORE.INTER.CONST>
1

>  <SCORE.INTER.POLAR>
0

>  <SCORE.INTER.ROT>
0

>  <SCORE.INTER.SOLV>
15.3306

>  <SCORE.INTER.VDW>
-18.7307

>  <SCORE.INTER.norm>
-1.25256

>  <SCORE.INTRA>
0

>  <SCORE.INTRA.DIHEDRAL>
0

>  <SCORE.INTRA.DIHEDRAL.0>
0

>  <SCORE.INTRA.POLAR>
0

>  <SCORE.INTRA.POLAR.0>
0

>  <SCORE.INTRA.REPUL>
0

>  <SCORE.INTRA.REPUL.0>
0

>  <SCORE.INTRA.SOLV>
0

>  <SCORE.INTRA.SOLV.lig_0>
-48.1583

>  <SCORE.INTRA.VDW>
0

>  <SCORE.INTRA.VDW.0>
0

>  <SCORE.INTRA.norm>
0

>  <SCORE.RESTR>
0

>  <SCORE.RESTR.CAVITY>
0

>  <SCORE.RESTR.norm>
0

>  <SCORE.SYSTEM>
0

>  <SCORE.SYSTEM.CONST>
0

>  <SCORE.SYSTEM.DIHEDRAL>
0

>  <SCORE.SYSTEM.SOLV>
0

>  <SCORE.SYSTEM.norm>
0

>  <SCORE.heavy>
12

>  <SCORE.norm>
-1.25256

>  <RMSD>
3.062

$$$$
ligand
 OpenBabel11021811503D
libRbt.so/2013.1/901 2013/11/27
 12 13  0  0  0  0  0  0  0  0999 V2000
    4.6404   15.4383    3.9900 C   0  0  0  0  0  0  0  0  0  0  0  0
    5.9969   17.0321    2.9631 C   0  0  0  0  0  0  0  0  0  0  0  0
    3.9525   14.3031    3.9068 N   0  0  0  0  0  0  0  0  0  0  0  0
    6.6342   17.5377    1.9014 N   0  0  0  0  0  0  0  0  0  0  0  0
    5.2779   15.9039    2.8936 N   0  0  0  0  0  0  0  0  0  0  0  0
    4.7132   16.0913    5.1711 N   0  0  0  0  0  0  0  0  0  0  0  0
    6.8767   19.6050    5.4679 N   0  0  0  0  0  0  0  0  0  0  0  0
    6.2058   19.0880    6.5869 C   0  0  0  0  0  0  0  0  0  0  0  0
    5.4606   17.8911    6.4739 N   0  0  0  0  0  0  0  0  0  0  0  0
    5.4194   17.2433    5.2896 C   0  0  0  0  0  0  0  0  0  0  0  0
    6.0919   17.7392    4.1680 C   0  0  0  0  0  0  0  0  0  0  0  0
    6.8271   18.9212    4.2370 C   0  0  0  0  0  0  0  0  0  0  0  0
  1  3  1  0  0  0  0
  1  5  1  0  0  0  0
  1  6  2  0  0  0  0
  2  5  2  0  0  0  0
  2 11  1  0  0  0  0
  2  4  1  0  0  0  0
  6 10  1  0  0  0  0
  7  8  2  0  0  0  0
  7 12  1  0  0  0  0
  8  9  1  0  0  0  0
  9 10  2  0  0  0  0
 10 11  1  0  0  0  0
 11 12  2  0  0  0  0
M  END
>  <CHROM.1>
5.66022768,17.20643563,4.41168538,2.27734844,-0.95146526,-2.01441707

>  <Name>
ligand

>  <RI>
0

>  <Rbt.Current_Directory>
/home/itssahil/PROJECTS/Mol_Feturizer/New_Systems/rnas/4LX5

>  <Rbt.Executable>
rbdock ($Id: //depot/dev/client3/rdock/2013.1/src/exe/rbdock.cxx#4 $)

>  <Rbt.Library>
libRbt.so (2013.1, Build901 2013/11/27)

>  <Rbt.Parameter_File>
/export/apps/rDock/src/rDock_2013.1_src/data/scripts/dock_solv.prm

>  <Rbt.Receptor>
prm/pocket_docking_5.prm

>  <SCORE>
-15.0483

>  <SCORE.INTER>
-15.0483

>  <SCORE.INTER.CONST>
1

>  <SCORE.INTER.POLAR>
0

>  <SCORE.INTER.ROT>
0

>  <SCORE.INTER.SOLV>
15.3114

>  <SCORE.INTER.VDW>
-18.736

>  <SCORE.INTER.norm>
-1.25403

>  <SCORE.INTRA>
0

>  <SCORE.INTRA.DIHEDRAL>
0

>  <SCORE.INTRA.DIHEDRAL.0>
0

>  <SCORE.INTRA.POLAR>
0

>  <SCORE.INTRA.POLAR.0>
0

>  <SCORE.INTRA.REPUL>
0

>  <SCORE.INTRA.REPUL.0>
0

>  <SCORE.INTRA.SOLV>
0

>  <SCORE.INTRA.SOLV.lig_0>
-48.1583

>  <SCORE.INTRA.VDW>
0

>  <SCORE.INTRA.VDW.0>
0

>  <SCORE.INTRA.norm>
0

>  <SCORE.RESTR>
0

>  <SCORE.RESTR.CAVITY>
0

>  <SCORE.RESTR.norm>
0

>  <SCORE.SYSTEM>
0

>  <SCORE.SYSTEM.CONST>
0

>  <SCORE.SYSTEM.DIHEDRAL>
0

>  <SCORE.SYSTEM.SOLV>
0

>  <SCORE.SYSTEM.norm>
0

>  <SCORE.heavy>
12

>  <SCORE.norm>
-1.25403

>  <RMSD>
3.062

$$$$
ligand
 OpenBabel11021811503D
libRbt.so/2013.1/901 2013/11/27
 12 13  0  0  0  0  0  0  0  0999 V2000
    4.6577   15.4573    3.9954 C   0  0  0  0  0  0  0  0  0  0  0  0
    6.0504   17.0292    2.9832 C   0  0  0  0  0  0  0  0  0  0  0  0
    3.9616   14.3274    3.9080 N   0  0  0  0  0  0  0  0  0  0  0  0
    6.7150   17.5189    1.9308 N   0  0  0  0  0  0  0  0  0  0  0  0
    5.3230   15.9067    2.9088 N   0  0  0  0  0  0  0  0  0  0  0  0
    4.7109   16.1210    5.1716 N   0  0  0  0  0  0  0  0  0  0  0  0
    6.8990   19.6182    5.4820 N   0  0  0  0  0  0  0  0  0  0  0  0
    6.1994   19.1180    6.5910 C   0  0  0  0  0  0  0  0  0  0  0  0
    5.4461   17.9266    6.4732 N   0  0  0  0  0  0  0  0  0  0  0  0
    5.4247   17.2678    5.2945 C   0  0  0  0  0  0  0  0  0  0  0  0
    6.1257   17.7470    4.1832 C   0  0  0  0  0  0  0  0  0  0  0  0
    6.8699   18.9230    4.2569 C   0  0  0  0  0  0  0  0  0  0  0  0
  1  3  1  0  0  0  0
  1  5  1  0  0  0  0
  1  6  2  0  0  0  0
  2  5  2  0  0  0  0
  2 11  1  0  0  0  0
  2  4  1  0  0  0  0
  6 10  1  0  0  0  0
  7  8  2  0  0  0  0
  7 12  1  0  0  0  0
  8  9  1  0  0  0  0
  9 10  2  0  0  0  0
 10 11  1  0  0  0  0
 11 12  2  0  0  0  0
M  END
>  <CHROM.1>
5.68408477,17.22040620,4.42239884,2.25102264,-0.93388498,-2.04526507

>  <Name>
ligand

>  <RI>
0

>  <Rbt.Current_Directory>
/home/itssahil/PROJECTS/Mol_Feturizer/New_Systems/rnas/4LX5

>  <Rbt.Executable>
rbdock ($Id: //depot/dev/client3/rdock/2013.1/src/exe/rbdock.cxx#4 $)

>  <Rbt.Library>
libRbt.so (2013.1, Build901 2013/11/27)

>  <Rbt.Parameter_File>
/export/apps/rDock/src/rDock_2013.1_src/data/scripts/dock_solv.prm

>  <Rbt.Receptor>
prm/pocket_docking_6.prm

>  <SCORE>
-15.0222

>  <SCORE.INTER>
-15.0222

>  <SCORE.INTER.CONST>
1

>  <SCORE.INTER.POLAR>
0

>  <SCORE.INTER.ROT>
0

>  <SCORE.INTER.SOLV>
15.4436

>  <SCORE.INTER.VDW>
-18.7626

>  <SCORE.INTER.norm>
-1.25185

>  <SCORE.INTRA>
0

>  <SCORE.INTRA.DIHEDRAL>
0

>  <SCORE.INTRA.DIHEDRAL.0>
0

>  <SCORE.INTRA.POLAR>
0

>  <SCORE.INTRA.POLAR.0>
0

>  <SCORE.INTRA.REPUL>
0

>  <SCORE.INTRA.REPUL.0>
0

>  <SCORE.INTRA.SOLV>
0

>  <SCORE.INTRA.SOLV.lig_0>
-48.1583

>  <SCORE.INTRA.VDW>
0

>  <SCORE.INTRA.VDW.0>
0

>  <SCORE.INTRA.norm>
0

>  <SCORE.RESTR>
0

>  <SCORE.RESTR.CAVITY>
0

>  <SCORE.RESTR.norm>
0

>  <SCORE.SYSTEM>
0

>  <SCORE.SYSTEM.CONST>
0

>  <SCORE.SYSTEM.DIHEDRAL>
0

>  <SCORE.SYSTEM.SOLV>
0

>  <SCORE.SYSTEM.norm>
0

>  <SCORE.heavy>
12

>  <SCORE.norm>
-1.25185

>  <RMSD>
3.062

$$$$
ligand
 OpenBabel11021811503D
libRbt.so/2013.1/901 2013/11/27
 12 13  0  0  0  0  0  0  0  0999 V2000
    4.6445   15.4387    3.9956 C   0  0  0  0  0  0  0  0  0  0  0  0
    5.9894   17.0380    2.9621 C   0  0  0  0  0  0  0  0  0  0  0  0
    3.9619   14.3000    3.9161 N   0  0  0  0  0  0  0  0  0  0  0  0
    6.6202   17.5457    1.8975 N   0  0  0  0  0  0  0  0  0  0  0  0
    5.2757   15.9062    2.8964 N   0  0  0  0  0  0  0  0  0  0  0  0
    4.7186   16.0931    5.1758 N   0  0  0  0  0  0  0  0  0  0  0  0
    6.8660   19.6176    5.4610 N   0  0  0  0  0  0  0  0  0  0  0  0
    6.2018   19.0985    6.5830 C   0  0  0  0  0  0  0  0  0  0  0  0
    5.4620   17.8978    6.4740 N   0  0  0  0  0  0  0  0  0  0  0  0
    5.4196   17.2487    5.2905 C   0  0  0  0  0  0  0  0  0  0  0  0
    6.0855   17.7468    4.1660 C   0  0  0  0  0  0  0  0  0  0  0  0
    6.8151   18.9324    4.2310 C   0  0  0  0  0  0  0  0  0  0  0  0
  1  3  1  0  0  0  0
  1  5  1  0  0  0  0
  1  6  2  0  0  0  0
  2  5  2  0  0  0  0
  2 11  1  0  0  0  0
  2  4  1  0  0  0  0
  6 10  1  0  0  0  0
  7  8  2  0  0  0  0
  7 12  1  0  0  0  0
  8  9  1  0  0  0  0
  9 10  2  0  0  0  0
 10 11  1  0  0  0  0
 11 12  2  0  0  0  0
M  END
>  <CHROM.1>
5.65729098,17.21213516,4.41173903,2.27959303,-0.95746862,-2.01356706

>  <Name>
ligand

>  <RI>
0

>  <Rbt.Current_Directory>
/home/itssahil/PROJECTS/Mol_Feturizer/New_Systems/rnas/4LX5

>  <Rbt.Executable>
rbdock ($Id: //depot/dev/client3/rdock/2013.1/src/exe/rbdock.cxx#4 $)

>  <Rbt.Library>
libRbt.so (2013.1, Build901 2013/11/27)

>  <Rbt.Parameter_File>
/export/apps/rDock/src/rDock_2013.1_src/data/scripts/dock_solv.prm

>  <Rbt.Receptor>
prm/pocket_docking_7.prm

>  <SCORE>
-15.0461

>  <SCORE.INTER>
-15.0461

>  <SCORE.INTER.CONST>
1

>  <SCORE.INTER.POLAR>
0

>  <SCORE.INTER.ROT>
0

>  <SCORE.INTER.SOLV>
15.3545

>  <SCORE.INTER.VDW>
-18.7489

>  <SCORE.INTER.norm>
-1.25384

>  <SCORE.INTRA>
0

>  <SCORE.INTRA.DIHEDRAL>
0

>  <SCORE.INTRA.DIHEDRAL.0>
0

>  <SCORE.INTRA.POLAR>
0

>  <SCORE.INTRA.POLAR.0>
0

>  <SCORE.INTRA.REPUL>
0

>  <SCORE.INTRA.REPUL.0>
0

>  <SCORE.INTRA.SOLV>
0

>  <SCORE.INTRA.SOLV.lig_0>
-48.1583

>  <SCORE.INTRA.VDW>
0

>  <SCORE.INTRA.VDW.0>
0

>  <SCORE.INTRA.norm>
0

>  <SCORE.RESTR>
0

>  <SCORE.RESTR.CAVITY>
0

>  <SCORE.RESTR.norm>
0

>  <SCORE.SYSTEM>
0

>  <SCORE.SYSTEM.CONST>
0

>  <SCORE.SYSTEM.DIHEDRAL>
0

>  <SCORE.SYSTEM.SOLV>
0

>  <SCORE.SYSTEM.norm>
0

>  <SCORE.heavy>
12

>  <SCORE.norm>
-1.25384

>  <RMSD>
3.062

$$$$
ligand
 OpenBabel11021811503D
libRbt.so/2013.1/901 2013/11/27
 12 13  0  0  0  0  0  0  0  0999 V2000
    4.6370   15.4294    4.0052 C   0  0  0  0  0  0  0  0  0  0  0  0
    5.9738   17.0171    2.9436 C   0  0  0  0  0  0  0  0  0  0  0  0
    3.9546   14.2895    3.9439 N   0  0  0  0  0  0  0  0  0  0  0  0
    6.5970   17.5124    1.8687 N   0  0  0  0  0  0  0  0  0  0  0  0
    5.2604   15.8842    2.8962 N   0  0  0  0  0  0  0  0  0  0  0  0
    4.7189   16.0978    5.1770 N   0  0  0  0  0  0  0  0  0  0  0  0
    6.8660   19.6266    5.4057 N   0  0  0  0  0  0  0  0  0  0  0  0
    6.2099   19.1205    6.5383 C   0  0  0  0  0  0  0  0  0  0  0  0
    5.4701   17.9182    6.4486 N   0  0  0  0  0  0  0  0  0  0  0  0
    5.4200   17.2550    5.2732 C   0  0  0  0  0  0  0  0  0  0  0  0
    6.0778   17.7401    4.1383 C   0  0  0  0  0  0  0  0  0  0  0  0
    6.8071   18.9268    4.1842 C   0  0  0  0  0  0  0  0  0  0  0  0
  1  3  1  0  0  0  0
  1  5  1  0  0  0  0
  1  6  2  0  0  0  0
  2  5  2  0  0  0  0
  2 11  1  0  0  0  0
  2  4  1  0  0  0  0
  6 10  1  0  0  0  0
  7  8  2  0  0  0  0
  7 12  1  0  0  0  0
  8  9  1  0  0  0  0
  9 10  2  0  0  0  0
 10 11  1  0  0  0  0
 11 12  2  0  0  0  0
M  END
>  <CHROM.1>
5.65160645,17.20821501,4.39331518,2.28999394,-0.96095847,-2.01690633

>  <Name>
ligand

>  <RI>
0

>  <Rbt.Current_Directory>
/home/itssahil/PROJECTS/Mol_Feturizer/New_Systems/rnas/4LX5

>  <Rbt.Executable>
rbdock ($Id: //depot/dev/client3/rdock/2013.1/src/exe/rbdock.cxx#4 $)

>  <Rbt.Library>
libRbt.so (2013.1, Build901 2013/11/27)

>  <Rbt.Parameter_File>
/export/apps/rDock/src/rDock_2013.1_src/data/scripts/dock_solv.prm

>  <Rbt.Receptor>
prm/blind_docking_60.prm

>  <SCORE>
-15.0422

>  <SCORE.INTER>
-15.0422

>  <SCORE.INTER.CONST>
1

>  <SCORE.INTER.POLAR>
0

>  <SCORE.INTER.ROT>
0

>  <SCORE.INTER.SOLV>
15.3363

>  <SCORE.INTER.VDW>
-18.7402

>  <SCORE.INTER.norm>
-1.25351

>  <SCORE.INTRA>
0

>  <SCORE.INTRA.DIHEDRAL>
0

>  <SCORE.INTRA.DIHEDRAL.0>
0

>  <SCORE.INTRA.POLAR>
0

>  <SCORE.INTRA.POLAR.0>
0

>  <SCORE.INTRA.REPUL>
0

>  <SCORE.INTRA.REPUL.0>
0

>  <SCORE.INTRA.SOLV>
0

>  <SCORE.INTRA.SOLV.lig_0>
-48.1583

>  <SCORE.INTRA.VDW>
0

>  <SCORE.INTRA.VDW.0>
0

>  <SCORE.INTRA.norm>
0

>  <SCORE.RESTR>
0

>  <SCORE.RESTR.CAVITY>
0

>  <SCORE.RESTR.norm>
0

>  <SCORE.SYSTEM>
0

>  <SCORE.SYSTEM.CONST>
0

>  <SCORE.SYSTEM.DIHEDRAL>
0

>  <SCORE.SYSTEM.SOLV>
0

>  <SCORE.SYSTEM.norm>
0

>  <SCORE.heavy>
12

>  <SCORE.norm>
-1.25351

>  <RMSD>
3.063

$$$$
ligand
 OpenBabel11021811503D
libRbt.so/2013.1/901 2013/11/27
 12 13  0  0  0  0  0  0  0  0999 V2000
    4.6376   15.4451    3.9974 C   0  0  0  0  0  0  0  0  0  0  0  0
    5.9777   17.0468    2.9612 C   0  0  0  0  0  0  0  0  0  0  0  0
    3.9518   14.3084    3.9175 N   0  0  0  0  0  0  0  0  0  0  0  0
    6.6009   17.5586    1.8941 N   0  0  0  0  0  0  0  0  0  0  0  0
    5.2608   15.9170    2.8955 N   0  0  0  0  0  0  0  0  0  0  0  0
    4.7229   16.0932    5.1803 N   0  0  0  0  0  0  0  0  0  0  0  0
    6.8807   19.6113    5.4663 N   0  0  0  0  0  0  0  0  0  0  0  0
    6.2245   19.0878    6.5910 C   0  0  0  0  0  0  0  0  0  0  0  0
    5.4812   17.8894    6.4818 N   0  0  0  0  0  0  0  0  0  0  0  0
    5.4275   17.2466    5.2953 C   0  0  0  0  0  0  0  0  0  0  0  0
    6.0853   17.7490    4.1679 C   0  0  0  0  0  0  0  0  0  0  0  0
    6.8182   18.9326    4.2332 C   0  0  0  0  0  0  0  0  0  0  0  0
  1  3  1  0  0  0  0
  1  5  1  0  0  0  0
  1  6  2  0  0  0  0
  2  5  2  0  0  0  0
  2 11  1  0  0  0  0
  2  4  1  0  0  0  0
  6 10  1  0  0  0  0
  7  8  2  0  0  0  0
  7 12  1  0  0  0  0
  8  9  1  0  0  0  0
  9 10  2  0  0  0  0
 10 11  1  0  0  0  0
 11 12  2  0  0  0  0
M  END
>  <CHROM.1>
5.65789338,17.21410559,4.41443924,2.29422506,-0.95886326,-1.99636721

>  <Name>
ligand

>  <RI>
0

>  <Rbt.Current_Directory>
/home/itssahil/PROJECTS/Mol_Feturizer/New_Systems/rnas/4LX5

>  <Rbt.Executable>
rbdock ($Id: //depot/dev/client3/rdock/2013.1/src/exe/rbdock.cxx#4 $)

>  <Rbt.Library>
libRbt.so (2013.1, Build901 2013/11/27)

>  <Rbt.Parameter_File>
/export/apps/rDock/src/rDock_2013.1_src/data/scripts/dock_solv.prm

>  <Rbt.Receptor>
prm/pocket_docking_3.prm

>  <SCORE>
-15.0435

>  <SCORE.INTER>
-15.0435

>  <SCORE.INTER.CONST>
1

>  <SCORE.INTER.POLAR>
0

>  <SCORE.INTER.ROT>
0

>  <SCORE.INTER.SOLV>
15.2945

>  <SCORE.INTER.VDW>
-18.7272

>  <SCORE.INTER.norm>
-1.25363

>  <SCORE.INTRA>
0

>  <SCORE.INTRA.DIHEDRAL>
0

>  <SCORE.INTRA.DIHEDRAL.0>
0

>  <SCORE.INTRA.POLAR>
0

>  <SCORE.INTRA.POLAR.0>
0

>  <SCORE.INTRA.REPUL>
0

>  <SCORE.INTRA.REPUL.0>
0

>  <SCORE.INTRA.SOLV>
0

>  <SCORE.INTRA.SOLV.lig_0>
-48.1583

>  <SCORE.INTRA.VDW>
0

>  <SCORE.INTRA.VDW.0>
0

>  <SCORE.INTRA.norm>
0

>  <SCORE.RESTR>
0

>  <SCORE.RESTR.CAVITY>
0

>  <SCORE.RESTR.norm>
0

>  <SCORE.SYSTEM>
0

>  <SCORE.SYSTEM.CONST>
0

>  <SCORE.SYSTEM.DIHEDRAL>
0

>  <SCORE.SYSTEM.SOLV>
0

>  <SCORE.SYSTEM.norm>
0

>  <SCORE.heavy>
12

>  <SCORE.norm>
-1.25363

>  <RMSD>
3.063

$$$$
ligand
 OpenBabel11021811503D
libRbt.so/2013.1/901 2013/11/27
 12 13  0  0  0  0  0  0  0  0999 V2000
    4.4782   15.2810    3.8861 C   0  0  0  0  0  0  0  0  0  0  0  0
    5.7340   16.9367    2.8295 C   0  0  0  0  0  0  0  0  0  0  0  0
    3.7920   14.1446    3.8046 N   0  0  0  0  0  0  0  0  0  0  0  0
    6.2761   17.5003    1.7444 N   0  0  0  0  0  0  0  0  0  0  0  0
    5.0179   15.8063    2.7646 N   0  0  0  0  0  0  0  0  0  0  0  0
    4.6473   15.8755    5.0881 N   0  0  0  0  0  0  0  0  0  0  0  0
    6.8086   19.3912    5.3767 N   0  0  0  0  0  0  0  0  0  0  0  0
    6.2378   18.8130    6.5211 C   0  0  0  0  0  0  0  0  0  0  0  0
    5.4924   17.6159    6.4116 N   0  0  0  0  0  0  0  0  0  0  0  0
    5.3546   17.0270    5.2041 C   0  0  0  0  0  0  0  0  0  0  0  0
    5.9268   17.5843    4.0560 C   0  0  0  0  0  0  0  0  0  0  0  0
    6.6587   18.7685    4.1218 C   0  0  0  0  0  0  0  0  0  0  0  0
  1  3  1  0  0  0  0
  1  5  1  0  0  0  0
  1  6  2  0  0  0  0
  2  5  2  0  0  0  0
  2 11  1  0  0  0  0
  2  4  1  0  0  0  0
  6 10  1  0  0  0  0
  7  8  2  0  0  0  0
  7 12  1  0  0  0  0
  8  9  1  0  0  0  0
  9 10  2  0  0  0  0
 10 11  1  0  0  0  0
 11 12  2  0  0  0  0
M  END
>  <CHROM.1>
5.52030694,17.03596588,4.30825526,2.41270492,-0.98875432,-1.85284550

>  <Name>
ligand

>  <RI>
0

>  <Rbt.Current_Directory>
/home/itssahil/PROJECTS/Mol_Feturizer/New_Systems/rnas/4LX5

>  <Rbt.Executable>
rbdock ($Id: //depot/dev/client3/rdock/2013.1/src/exe/rbdock.cxx#4 $)

>  <Rbt.Library>
libRbt.so (2013.1, Build901 2013/11/27)

>  <Rbt.Parameter_File>
/export/apps/rDock/src/rDock_2013.1_src/data/scripts/dock_solv.prm

>  <Rbt.Receptor>
prm/pocket_docking_3.prm

>  <SCORE>
-14.5603

>  <SCORE.INTER>
-14.5603

>  <SCORE.INTER.CONST>
1

>  <SCORE.INTER.POLAR>
0

>  <SCORE.INTER.ROT>
0

>  <SCORE.INTER.SOLV>
14.3588

>  <SCORE.INTER.VDW>
-18.0931

>  <SCORE.INTER.norm>
-1.21336

>  <SCORE.INTRA>
0

>  <SCORE.INTRA.DIHEDRAL>
0

>  <SCORE.INTRA.DIHEDRAL.0>
0

>  <SCORE.INTRA.POLAR>
0

>  <SCORE.INTRA.POLAR.0>
0

>  <SCORE.INTRA.REPUL>
0

>  <SCORE.INTRA.REPUL.0>
0

>  <SCORE.INTRA.SOLV>
0

>  <SCORE.INTRA.SOLV.lig_0>
-48.1583

>  <SCORE.INTRA.VDW>
0

>  <SCORE.INTRA.VDW.0>
0

>  <SCORE.INTRA.norm>
0

>  <SCORE.RESTR>
0

>  <SCORE.RESTR.CAVITY>
0

>  <SCORE.RESTR.norm>
0

>  <SCORE.SYSTEM>
0

>  <SCORE.SYSTEM.CONST>
0

>  <SCORE.SYSTEM.DIHEDRAL>
0

>  <SCORE.SYSTEM.SOLV>
0

>  <SCORE.SYSTEM.norm>
0

>  <SCORE.heavy>
12

>  <SCORE.norm>
-1.21336

>  <RMSD>
3.063

$$$$
ligand
 OpenBabel11021811503D
libRbt.so/2013.1/901 2013/11/27
 12 13  0  0  0  0  0  0  0  0999 V2000
    4.6376   15.4478    4.0015 C   0  0  0  0  0  0  0  0  0  0  0  0
    5.9890   17.0329    2.9545 C   0  0  0  0  0  0  0  0  0  0  0  0
    3.9487   14.3123    3.9310 N   0  0  0  0  0  0  0  0  0  0  0  0
    6.6203   17.5299    1.8852 N   0  0  0  0  0  0  0  0  0  0  0  0
    5.2691   15.9045    2.8979 N   0  0  0  0  0  0  0  0  0  0  0  0
    4.7176   16.1098    5.1770 N   0  0  0  0  0  0  0  0  0  0  0  0
    6.8844   19.6246    5.4341 N   0  0  0  0  0  0  0  0  0  0  0  0
    6.2197   19.1166    6.5610 C   0  0  0  0  0  0  0  0  0  0  0  0
    5.4733   17.9193    6.4616 N   0  0  0  0  0  0  0  0  0  0  0  0
    5.4250   17.2623    5.2826 C   0  0  0  0  0  0  0  0  0  0  0  0
    6.0913   17.7492    4.1534 C   0  0  0  0  0  0  0  0  0  0  0  0
    6.8274   18.9313    4.2089 C   0  0  0  0  0  0  0  0  0  0  0  0
  1  3  1  0  0  0  0
  1  5  1  0  0  0  0
  1  6  2  0  0  0  0
  2  5  2  0  0  0  0
  2 11  1  0  0  0  0
  2  4  1  0  0  0  0
  6 10  1  0  0  0  0
  7  8  2  0  0  0  0
  7 12  1  0  0  0  0
  8  9  1  0  0  0  0
  9 10  2  0  0  0  0
 10 11  1  0  0  0  0
 11 12  2  0  0  0  0
M  END
>  <CHROM.1>
5.66073536,17.21856845,4.40359810,2.28671004,-0.95348093,-2.01453134

>  <Name>
ligand

>  <RI>
0

>  <Rbt.Current_Directory>
/home/itssahil/PROJECTS/Mol_Feturizer/New_Systems/rnas/4LX5

>  <Rbt.Executable>
rbdock ($Id: //depot/dev/client3/rdock/2013.1/src/exe/rbdock.cxx#4 $)

>  <Rbt.Library>
libRbt.so (2013.1, Build901 2013/11/27)

>  <Rbt.Parameter_File>
/export/apps/rDock/src/rDock_2013.1_src/data/scripts/dock_solv.prm

>  <Rbt.Receptor>
prm/pocket_docking_3.prm

>  <SCORE>
-15.0403

>  <SCORE.INTER>
-15.0403

>  <SCORE.INTER.CONST>
1

>  <SCORE.INTER.POLAR>
0

>  <SCORE.INTER.ROT>
0

>  <SCORE.INTER.SOLV>
15.3026

>  <SCORE.INTER.VDW>
-18.7277

>  <SCORE.INTER.norm>
-1.25336

>  <SCORE.INTRA>
0

>  <SCORE.INTRA.DIHEDRAL>
0

>  <SCORE.INTRA.DIHEDRAL.0>
0

>  <SCORE.INTRA.POLAR>
0

>  <SCORE.INTRA.POLAR.0>
0

>  <SCORE.INTRA.REPUL>
0

>  <SCORE.INTRA.REPUL.0>
0

>  <SCORE.INTRA.SOLV>
0

>  <SCORE.INTRA.SOLV.lig_0>
-48.1583

>  <SCORE.INTRA.VDW>
0

>  <SCORE.INTRA.VDW.0>
0

>  <SCORE.INTRA.norm>
0

>  <SCORE.RESTR>
0

>  <SCORE.RESTR.CAVITY>
0

>  <SCORE.RESTR.norm>
0

>  <SCORE.SYSTEM>
0

>  <SCORE.SYSTEM.CONST>
0

>  <SCORE.SYSTEM.DIHEDRAL>
0

>  <SCORE.SYSTEM.SOLV>
0

>  <SCORE.SYSTEM.norm>
0

>  <SCORE.heavy>
12

>  <SCORE.norm>
-1.25336

>  <RMSD>
3.063

$$$$
ligand
 OpenBabel11021811503D
libRbt.so/2013.1/901 2013/11/27
 12 13  0  0  0  0  0  0  0  0999 V2000
    4.6401   15.4443    3.9992 C   0  0  0  0  0  0  0  0  0  0  0  0
    5.9759   17.0488    2.9619 C   0  0  0  0  0  0  0  0  0  0  0  0
    3.9568   14.3060    3.9201 N   0  0  0  0  0  0  0  0  0  0  0  0
    6.5973   17.5618    1.8944 N   0  0  0  0  0  0  0  0  0  0  0  0
    5.2616   15.9173    2.8969 N   0  0  0  0  0  0  0  0  0  0  0  0
    4.7247   16.0928    5.1820 N   0  0  0  0  0  0  0  0  0  0  0  0
    6.8746   19.6159    5.4659 N   0  0  0  0  0  0  0  0  0  0  0  0
    6.2203   19.0911    6.5911 C   0  0  0  0  0  0  0  0  0  0  0  0
    5.4796   17.8910    6.4827 N   0  0  0  0  0  0  0  0  0  0  0  0
    5.4267   17.2478    5.2963 C   0  0  0  0  0  0  0  0  0  0  0  0
    6.0826   17.7515    4.1685 C   0  0  0  0  0  0  0  0  0  0  0  0
    6.8129   18.9368    4.2330 C   0  0  0  0  0  0  0  0  0  0  0  0
  1  3  1  0  0  0  0
  1  5  1  0  0  0  0
  1  6  2  0  0  0  0
  2  5  2  0  0  0  0
  2 11  1  0  0  0  0
  2  4  1  0  0  0  0
  6 10  1  0  0  0  0
  7  8  2  0  0  0  0
  7 12  1  0  0  0  0
  8  9  1  0  0  0  0
  9 10  2  0  0  0  0
 10 11  1  0  0  0  0
 11 12  2  0  0  0  0
M  END
>  <CHROM.1>
5.65662439,17.21565680,4.41532549,2.29354216,-0.96116936,-1.99714443

>  <Name>
ligand

>  <RI>
0

>  <Rbt.Current_Directory>
/home/itssahil/PROJECTS/Mol_Feturizer/New_Systems/rnas/4LX5

>  <Rbt.Executable>
rbdock ($Id: //depot/dev/client3/rdock/2013.1/src/exe/rbdock.cxx#4 $)

>  <Rbt.Library>
libRbt.so (2013.1, Build901 2013/11/27)

>  <Rbt.Parameter_File>
/export/apps/rDock/src/rDock_2013.1_src/data/scripts/dock_solv.prm

>  <Rbt.Receptor>
prm/pocket_docking_3.prm

>  <SCORE>
-15.0436

>  <SCORE.INTER>
-15.0436

>  <SCORE.INTER.CONST>
1

>  <SCORE.INTER.POLAR>
0

>  <SCORE.INTER.ROT>
0

>  <SCORE.INTER.SOLV>
15.3176

>  <SCORE.INTER.VDW>
-18.7349

>  <SCORE.INTER.norm>
-1.25363

>  <SCORE.INTRA>
0

>  <SCORE.INTRA.DIHEDRAL>
0

>  <SCORE.INTRA.DIHEDRAL.0>
0

>  <SCORE.INTRA.POLAR>
0

>  <SCORE.INTRA.POLAR.0>
0

>  <SCORE.INTRA.REPUL>
0

>  <SCORE.INTRA.REPUL.0>
0

>  <SCORE.INTRA.SOLV>
0

>  <SCORE.INTRA.SOLV.lig_0>
-48.1583

>  <SCORE.INTRA.VDW>
0

>  <SCORE.INTRA.VDW.0>
0

>  <SCORE.INTRA.norm>
0

>  <SCORE.RESTR>
0

>  <SCORE.RESTR.CAVITY>
0

>  <SCORE.RESTR.norm>
0

>  <SCORE.SYSTEM>
0

>  <SCORE.SYSTEM.CONST>
0

>  <SCORE.SYSTEM.DIHEDRAL>
0

>  <SCORE.SYSTEM.SOLV>
0

>  <SCORE.SYSTEM.norm>
0

>  <SCORE.heavy>
12

>  <SCORE.norm>
-1.25363

>  <RMSD>
3.063

$$$$
ligand
 OpenBabel11021811503D
libRbt.so/2013.1/901 2013/11/27
 12 13  0  0  0  0  0  0  0  0999 V2000
    4.6454   15.4273    3.9933 C   0  0  0  0  0  0  0  0  0  0  0  0
    5.9806   17.0380    2.9647 C   0  0  0  0  0  0  0  0  0  0  0  0
    3.9661   14.2870    3.9091 N   0  0  0  0  0  0  0  0  0  0  0  0
    6.6051   17.5548    1.9007 N   0  0  0  0  0  0  0  0  0  0  0  0
    5.2702   15.9043    2.8945 N   0  0  0  0  0  0  0  0  0  0  0  0
    4.7225   16.0741    5.1775 N   0  0  0  0  0  0  0  0  0  0  0  0
    6.8598   19.6036    5.4770 N   0  0  0  0  0  0  0  0  0  0  0  0
    6.2022   19.0748    6.5984 C   0  0  0  0  0  0  0  0  0  0  0  0
    5.4659   17.8725    6.4846 N   0  0  0  0  0  0  0  0  0  0  0  0
    5.4203   17.2311    5.2969 C   0  0  0  0  0  0  0  0  0  0  0  0
    6.0796   17.7389    4.1728 C   0  0  0  0  0  0  0  0  0  0  0  0
    6.8058   18.9264    4.2426 C   0  0  0  0  0  0  0  0  0  0  0  0
  1  3  1  0  0  0  0
  1  5  1  0  0  0  0
  1  6  2  0  0  0  0
  2  5  2  0  0  0  0
  2 11  1  0  0  0  0
  2  4  1  0  0  0  0
  6 10  1  0  0  0  0
  7  8  2  0  0  0  0
  7 12  1  0  0  0  0
  8  9  1  0  0  0  0
  9 10  2  0  0  0  0
 10 11  1  0  0  0  0
 11 12  2  0  0  0  0
M  END
>  <CHROM.1>
5.65427442,17.20128368,4.41690074,2.28411410,-0.96226375,-2.00315951

>  <Name>
ligand

>  <RI>
0

>  <Rbt.Current_Directory>
/home/itssahil/PROJECTS/Mol_Feturizer/New_Systems/rnas/4LX5

>  <Rbt.Executable>
rbdock ($Id: //depot/dev/client3/rdock/2013.1/src/exe/rbdock.cxx#4 $)

>  <Rbt.Library>
libRbt.so (2013.1, Build901 2013/11/27)

>  <Rbt.Parameter_File>
/export/apps/rDock/src/rDock_2013.1_src/data/scripts/dock_solv.prm

>  <Rbt.Receptor>
prm/pocket_docking_4.prm

>  <SCORE>
-15.0516

>  <SCORE.INTER>
-15.0516

>  <SCORE.INTER.CONST>
1

>  <SCORE.INTER.POLAR>
0

>  <SCORE.INTER.ROT>
0

>  <SCORE.INTER.SOLV>
15.3592

>  <SCORE.INTER.VDW>
-18.7541

>  <SCORE.INTER.norm>
-1.2543

>  <SCORE.INTRA>
0

>  <SCORE.INTRA.DIHEDRAL>
0

>  <SCORE.INTRA.DIHEDRAL.0>
0

>  <SCORE.INTRA.POLAR>
0

>  <SCORE.INTRA.POLAR.0>
0

>  <SCORE.INTRA.REPUL>
0

>  <SCORE.INTRA.REPUL.0>
0

>  <SCORE.INTRA.SOLV>
0

>  <SCORE.INTRA.SOLV.lig_0>
-48.1583

>  <SCORE.INTRA.VDW>
0

>  <SCORE.INTRA.VDW.0>
0

>  <SCORE.INTRA.norm>
0

>  <SCORE.RESTR>
0

>  <SCORE.RESTR.CAVITY>
0

>  <SCORE.RESTR.norm>
0

>  <SCORE.SYSTEM>
0

>  <SCORE.SYSTEM.CONST>
0

>  <SCORE.SYSTEM.DIHEDRAL>
0

>  <SCORE.SYSTEM.SOLV>
0

>  <SCORE.SYSTEM.norm>
0

>  <SCORE.heavy>
12

>  <SCORE.norm>
-1.2543

>  <RMSD>
3.063

$$$$
ligand
 OpenBabel11021811503D
libRbt.so/2013.1/901 2013/11/27
 12 13  0  0  0  0  0  0  0  0999 V2000
    4.6418   15.4124    4.0018 C   0  0  0  0  0  0  0  0  0  0  0  0
    5.9692   17.0163    2.9528 C   0  0  0  0  0  0  0  0  0  0  0  0
    3.9646   14.2699    3.9310 N   0  0  0  0  0  0  0  0  0  0  0  0
    6.5881   17.5246    1.8815 N   0  0  0  0  0  0  0  0  0  0  0  0
    5.2610   15.8806    2.8961 N   0  0  0  0  0  0  0  0  0  0  0  0
    4.7227   16.0702    5.1797 N   0  0  0  0  0  0  0  0  0  0  0  0
    6.8537   19.6067    5.4377 N   0  0  0  0  0  0  0  0  0  0  0  0
    6.2020   19.0869    6.5667 C   0  0  0  0  0  0  0  0  0  0  0  0
    5.4678   17.8821    6.4671 N   0  0  0  0  0  0  0  0  0  0  0  0
    5.4186   17.2297    5.2855 C   0  0  0  0  0  0  0  0  0  0  0  0
    6.0720   17.7285    4.1540 C   0  0  0  0  0  0  0  0  0  0  0  0
    6.7959   18.9181    4.2098 C   0  0  0  0  0  0  0  0  0  0  0  0
  1  3  1  0  0  0  0
  1  5  1  0  0  0  0
  1  6  2  0  0  0  0
  2  5  2  0  0  0  0
  2 11  1  0  0  0  0
  2  4  1  0  0  0  0
  6 10  1  0  0  0  0
  7  8  2  0  0  0  0
  7 12  1  0  0  0  0
  8  9  1  0  0  0  0
  9 10  2  0  0  0  0
 10 11  1  0  0  0  0
 11 12  2  0  0  0  0
M  END
>  <CHROM.1>
5.64878858,17.19226521,4.40483716,2.28935383,-0.96596692,-2.00803548

>  <Name>
ligand

>  <RI>
0

>  <Rbt.Current_Directory>
/home/itssahil/PROJECTS/Mol_Feturizer/New_Systems/rnas/4LX5

>  <Rbt.Executable>
rbdock ($Id: //depot/dev/client3/rdock/2013.1/src/exe/rbdock.cxx#4 $)

>  <Rbt.Library>
libRbt.so (2013.1, Build901 2013/11/27)

>  <Rbt.Parameter_File>
/export/apps/rDock/src/rDock_2013.1_src/data/scripts/dock_solv.prm

>  <Rbt.Receptor>
prm/pocket_docking_3.prm

>  <SCORE>
-15.0311

>  <SCORE.INTER>
-15.0311

>  <SCORE.INTER.CONST>
1

>  <SCORE.INTER.POLAR>
0

>  <SCORE.INTER.ROT>
0

>  <SCORE.INTER.SOLV>
15.3536

>  <SCORE.INTER.VDW>
-18.7386

>  <SCORE.INTER.norm>
-1.25259

>  <SCORE.INTRA>
0

>  <SCORE.INTRA.DIHEDRAL>
0

>  <SCORE.INTRA.DIHEDRAL.0>
0

>  <SCORE.INTRA.POLAR>
0

>  <SCORE.INTRA.POLAR.0>
0

>  <SCORE.INTRA.REPUL>
0

>  <SCORE.INTRA.REPUL.0>
0

>  <SCORE.INTRA.SOLV>
0

>  <SCORE.INTRA.SOLV.lig_0>
-48.1583

>  <SCORE.INTRA.VDW>
0

>  <SCORE.INTRA.VDW.0>
0

>  <SCORE.INTRA.norm>
0

>  <SCORE.RESTR>
0

>  <SCORE.RESTR.CAVITY>
0

>  <SCORE.RESTR.norm>
0

>  <SCORE.SYSTEM>
0

>  <SCORE.SYSTEM.CONST>
0

>  <SCORE.SYSTEM.DIHEDRAL>
0

>  <SCORE.SYSTEM.SOLV>
0

>  <SCORE.SYSTEM.norm>
0

>  <SCORE.heavy>
12

>  <SCORE.norm>
-1.25259

>  <RMSD>
3.064

$$$$
ligand
 OpenBabel11021811503D
libRbt.so/2013.1/901 2013/11/27
 12 13  0  0  0  0  0  0  0  0999 V2000
    4.6477   15.4507    4.0055 C   0  0  0  0  0  0  0  0  0  0  0  0
    5.9987   17.0416    2.9668 C   0  0  0  0  0  0  0  0  0  0  0  0
    3.9614   14.3140    3.9300 N   0  0  0  0  0  0  0  0  0  0  0  0
    6.6320   17.5429    1.9007 N   0  0  0  0  0  0  0  0  0  0  0  0
    5.2813   15.9119    2.9051 N   0  0  0  0  0  0  0  0  0  0  0  0
    4.7229   16.1097    5.1832 N   0  0  0  0  0  0  0  0  0  0  0  0
    6.8817   19.6282    5.4562 N   0  0  0  0  0  0  0  0  0  0  0  0
    6.2148   19.1157    6.5797 C   0  0  0  0  0  0  0  0  0  0  0  0
    5.4713   17.9171    6.4749 N   0  0  0  0  0  0  0  0  0  0  0  0
    5.4277   17.2633    5.2939 C   0  0  0  0  0  0  0  0  0  0  0  0
    6.0961   17.7548    4.1680 C   0  0  0  0  0  0  0  0  0  0  0  0
    6.8296   18.9382    4.2289 C   0  0  0  0  0  0  0  0  0  0  0  0
  1  3  1  0  0  0  0
  1  5  1  0  0  0  0
  1  6  2  0  0  0  0
  2  5  2  0  0  0  0
  2 11  1  0  0  0  0
  2  4  1  0  0  0  0
  6 10  1  0  0  0  0
  7  8  2  0  0  0  0
  7 12  1  0  0  0  0
  8  9  1  0  0  0  0
  9 10  2  0  0  0  0
 10 11  1  0  0  0  0
 11 12  2  0  0  0  0
M  END
>  <CHROM.1>
5.66595148,17.22253079,4.41551268,2.28072906,-0.95414780,-2.01662354

>  <Name>
ligand

>  <RI>
0

>  <Rbt.Current_Directory>
/home/itssahil/PROJECTS/Mol_Feturizer/New_Systems/rnas/4LX5

>  <Rbt.Executable>
rbdock ($Id: //depot/dev/client3/rdock/2013.1/src/exe/rbdock.cxx#4 $)

>  <Rbt.Library>
libRbt.so (2013.1, Build901 2013/11/27)

>  <Rbt.Parameter_File>
/export/apps/rDock/src/rDock_2013.1_src/data/scripts/dock_solv.prm

>  <Rbt.Receptor>
prm/pocket_docking_4.prm

>  <SCORE>
-15.0337

>  <SCORE.INTER>
-15.0337

>  <SCORE.INTER.CONST>
1

>  <SCORE.INTER.POLAR>
0

>  <SCORE.INTER.ROT>
0

>  <SCORE.INTER.SOLV>
15.3634

>  <SCORE.INTER.VDW>
-18.7436

>  <SCORE.INTER.norm>
-1.25281

>  <SCORE.INTRA>
0

>  <SCORE.INTRA.DIHEDRAL>
0

>  <SCORE.INTRA.DIHEDRAL.0>
0

>  <SCORE.INTRA.POLAR>
0

>  <SCORE.INTRA.POLAR.0>
0

>  <SCORE.INTRA.REPUL>
0

>  <SCORE.INTRA.REPUL.0>
0

>  <SCORE.INTRA.SOLV>
0

>  <SCORE.INTRA.SOLV.lig_0>
-48.1583

>  <SCORE.INTRA.VDW>
0

>  <SCORE.INTRA.VDW.0>
0

>  <SCORE.INTRA.norm>
0

>  <SCORE.RESTR>
0

>  <SCORE.RESTR.CAVITY>
0

>  <SCORE.RESTR.norm>
0

>  <SCORE.SYSTEM>
0

>  <SCORE.SYSTEM.CONST>
0

>  <SCORE.SYSTEM.DIHEDRAL>
0

>  <SCORE.SYSTEM.SOLV>
0

>  <SCORE.SYSTEM.norm>
0

>  <SCORE.heavy>
12

>  <SCORE.norm>
-1.25281

>  <RMSD>
3.064

$$$$
ligand
 OpenBabel11021811503D
libRbt.so/2013.1/901 2013/11/27
 12 13  0  0  0  0  0  0  0  0999 V2000
    4.6397   15.4176    4.0003 C   0  0  0  0  0  0  0  0  0  0  0  0
    5.9709   17.0187    2.9518 C   0  0  0  0  0  0  0  0  0  0  0  0
    3.9589   14.2773    3.9288 N   0  0  0  0  0  0  0  0  0  0  0  0
    6.5901   17.5265    1.8804 N   0  0  0  0  0  0  0  0  0  0  0  0
    5.2591   15.8853    2.8944 N   0  0  0  0  0  0  0  0  0  0  0  0
    4.7239   16.0736    5.1789 N   0  0  0  0  0  0  0  0  0  0  0  0
    6.8662   19.6032    5.4390 N   0  0  0  0  0  0  0  0  0  0  0  0
    6.2142   19.0839    6.5681 C   0  0  0  0  0  0  0  0  0  0  0  0
    5.4761   17.8815    6.4677 N   0  0  0  0  0  0  0  0  0  0  0  0
    5.4235   17.2309    5.2854 C   0  0  0  0  0  0  0  0  0  0  0  0
    6.0772   17.7291    4.1538 C   0  0  0  0  0  0  0  0  0  0  0  0
    6.8048   18.9164    4.2103 C   0  0  0  0  0  0  0  0  0  0  0  0
  1  3  1  0  0  0  0
  1  5  1  0  0  0  0
  1  6  2  0  0  0  0
  2  5  2  0  0  0  0
  2 11  1  0  0  0  0
  2  4  1  0  0  0  0
  6 10  1  0  0  0  0
  7  8  2  0  0  0  0
  7 12  1  0  0  0  0
  8  9  1  0  0  0  0
  9 10  2  0  0  0  0
 10 11  1  0  0  0  0
 11 12  2  0  0  0  0
M  END
>  <CHROM.1>
5.65262918,17.19381044,4.40442899,2.29345159,-0.96363009,-2.00338907

>  <Name>
ligand

>  <RI>
0

>  <Rbt.Current_Directory>
/home/itssahil/PROJECTS/Mol_Feturizer/New_Systems/rnas/4LX5

>  <Rbt.Executable>
rbdock ($Id: //depot/dev/client3/rdock/2013.1/src/exe/rbdock.cxx#4 $)

>  <Rbt.Library>
libRbt.so (2013.1, Build901 2013/11/27)

>  <Rbt.Parameter_File>
/export/apps/rDock/src/rDock_2013.1_src/data/scripts/dock_solv.prm

>  <Rbt.Receptor>
prm/pocket_docking_5.prm

>  <SCORE>
-15.032

>  <SCORE.INTER>
-15.032

>  <SCORE.INTER.CONST>
1

>  <SCORE.INTER.POLAR>
0

>  <SCORE.INTER.ROT>
0

>  <SCORE.INTER.SOLV>
15.3265

>  <SCORE.INTER.VDW>
-18.7302

>  <SCORE.INTER.norm>
-1.25267

>  <SCORE.INTRA>
0

>  <SCORE.INTRA.DIHEDRAL>
0

>  <SCORE.INTRA.DIHEDRAL.0>
0

>  <SCORE.INTRA.POLAR>
0

>  <SCORE.INTRA.POLAR.0>
0

>  <SCORE.INTRA.REPUL>
0

>  <SCORE.INTRA.REPUL.0>
0

>  <SCORE.INTRA.SOLV>
0

>  <SCORE.INTRA.SOLV.lig_0>
-48.1583

>  <SCORE.INTRA.VDW>
0

>  <SCORE.INTRA.VDW.0>
0

>  <SCORE.INTRA.norm>
0

>  <SCORE.RESTR>
0

>  <SCORE.RESTR.CAVITY>
0

>  <SCORE.RESTR.norm>
0

>  <SCORE.SYSTEM>
0

>  <SCORE.SYSTEM.CONST>
0

>  <SCORE.SYSTEM.DIHEDRAL>
0

>  <SCORE.SYSTEM.SOLV>
0

>  <SCORE.SYSTEM.norm>
0

>  <SCORE.heavy>
12

>  <SCORE.norm>
-1.25267

>  <RMSD>
3.064

$$$$
ligand
 OpenBabel11021811503D
libRbt.so/2013.1/901 2013/11/27
 12 13  0  0  0  0  0  0  0  0999 V2000
    4.6455   15.4244    3.9952 C   0  0  0  0  0  0  0  0  0  0  0  0
    5.9864   17.0311    2.9677 C   0  0  0  0  0  0  0  0  0  0  0  0
    3.9663   14.2840    3.9116 N   0  0  0  0  0  0  0  0  0  0  0  0
    6.6163   17.5440    1.9051 N   0  0  0  0  0  0  0  0  0  0  0  0
    5.2760   15.8974    2.8979 N   0  0  0  0  0  0  0  0  0  0  0  0
    4.7171   16.0752    5.1776 N   0  0  0  0  0  0  0  0  0  0  0  0
    6.8541   19.6050    5.4756 N   0  0  0  0  0  0  0  0  0  0  0  0
    6.1908   19.0803    6.5955 C   0  0  0  0  0  0  0  0  0  0  0  0
    5.4546   17.8779    6.4822 N   0  0  0  0  0  0  0  0  0  0  0  0
    5.4147   17.2324    5.2965 C   0  0  0  0  0  0  0  0  0  0  0  0
    6.0797   17.7361    4.1740 C   0  0  0  0  0  0  0  0  0  0  0  0
    6.8059   18.9236    4.2433 C   0  0  0  0  0  0  0  0  0  0  0  0
  1  3  1  0  0  0  0
  1  5  1  0  0  0  0
  1  6  2  0  0  0  0
  2  5  2  0  0  0  0
  2 11  1  0  0  0  0
  2  4  1  0  0  0  0
  6 10  1  0  0  0  0
  7  8  2  0  0  0  0
  7 12  1  0  0  0  0
  8  9  1  0  0  0  0
  9 10  2  0  0  0  0
 10 11  1  0  0  0  0
 11 12  2  0  0  0  0
M  END
>  <CHROM.1>
5.65296647,17.19947628,4.41775370,2.27655387,-0.95985905,-2.01278829

>  <Name>
ligand

>  <RI>
0

>  <Rbt.Current_Directory>
/home/itssahil/PROJECTS/Mol_Feturizer/New_Systems/rnas/4LX5

>  <Rbt.Executable>
rbdock ($Id: //depot/dev/client3/rdock/2013.1/src/exe/rbdock.cxx#4 $)

>  <Rbt.Library>
libRbt.so (2013.1, Build901 2013/11/27)

>  <Rbt.Parameter_File>
/export/apps/rDock/src/rDock_2013.1_src/data/scripts/dock_solv.prm

>  <Rbt.Receptor>
prm/pocket_docking_5.prm

>  <SCORE>
-15.0468

>  <SCORE.INTER>
-15.0468

>  <SCORE.INTER.CONST>
1

>  <SCORE.INTER.POLAR>
0

>  <SCORE.INTER.ROT>
0

>  <SCORE.INTER.SOLV>
15.3662

>  <SCORE.INTER.VDW>
-18.7533

>  <SCORE.INTER.norm>
-1.2539

>  <SCORE.INTRA>
0

>  <SCORE.INTRA.DIHEDRAL>
0

>  <SCORE.INTRA.DIHEDRAL.0>
0

>  <SCORE.INTRA.POLAR>
0

>  <SCORE.INTRA.POLAR.0>
0

>  <SCORE.INTRA.REPUL>
0

>  <SCORE.INTRA.REPUL.0>
0

>  <SCORE.INTRA.SOLV>
0

>  <SCORE.INTRA.SOLV.lig_0>
-48.1583

>  <SCORE.INTRA.VDW>
0

>  <SCORE.INTRA.VDW.0>
0

>  <SCORE.INTRA.norm>
0

>  <SCORE.RESTR>
0

>  <SCORE.RESTR.CAVITY>
0

>  <SCORE.RESTR.norm>
0

>  <SCORE.SYSTEM>
0

>  <SCORE.SYSTEM.CONST>
0

>  <SCORE.SYSTEM.DIHEDRAL>
0

>  <SCORE.SYSTEM.SOLV>
0

>  <SCORE.SYSTEM.norm>
0

>  <SCORE.heavy>
12

>  <SCORE.norm>
-1.2539

>  <RMSD>
3.064

$$$$
ligand
 OpenBabel11021811503D
libRbt.so/2013.1/901 2013/11/27
 12 13  0  0  0  0  0  0  0  0999 V2000
    4.6406   15.4153    4.0004 C   0  0  0  0  0  0  0  0  0  0  0  0
    5.9681   17.0190    2.9511 C   0  0  0  0  0  0  0  0  0  0  0  0
    3.9621   14.2736    3.9293 N   0  0  0  0  0  0  0  0  0  0  0  0
    6.5858   17.5279    1.8795 N   0  0  0  0  0  0  0  0  0  0  0  0
    5.2586   15.8841    2.8942 N   0  0  0  0  0  0  0  0  0  0  0  0
    4.7240   16.0717    5.1789 N   0  0  0  0  0  0  0  0  0  0  0  0
    6.8591   19.6057    5.4376 N   0  0  0  0  0  0  0  0  0  0  0  0
    6.2086   19.0852    6.5670 C   0  0  0  0  0  0  0  0  0  0  0  0
    5.4729   17.8813    6.4672 N   0  0  0  0  0  0  0  0  0  0  0  0
    5.4212   17.2303    5.2850 C   0  0  0  0  0  0  0  0  0  0  0  0
    6.0734   17.7298    4.1530 C   0  0  0  0  0  0  0  0  0  0  0  0
    6.7986   18.9185    4.2091 C   0  0  0  0  0  0  0  0  0  0  0  0
  1  3  1  0  0  0  0
  1  5  1  0  0  0  0
  1  6  2  0  0  0  0
  2  5  2  0  0  0  0
  2 11  1  0  0  0  0
  2  4  1  0  0  0  0
  6 10  1  0  0  0  0
  7  8  2  0  0  0  0
  7 12  1  0  0  0  0
  8  9  1  0  0  0  0
  9 10  2  0  0  0  0
 10 11  1  0  0  0  0
 11 12  2  0  0  0  0
M  END
>  <CHROM.1>
5.65004862,17.19364046,4.40388331,2.29258859,-0.96567036,-2.00423613

>  <Name>
ligand

>  <RI>
0

>  <Rbt.Current_Directory>
/home/itssahil/PROJECTS/Mol_Feturizer/New_Systems/rnas/4LX5

>  <Rbt.Executable>
rbdock ($Id: //depot/dev/client3/rdock/2013.1/src/exe/rbdock.cxx#4 $)

>  <Rbt.Library>
libRbt.so (2013.1, Build901 2013/11/27)

>  <Rbt.Parameter_File>
/export/apps/rDock/src/rDock_2013.1_src/data/scripts/dock_solv.prm

>  <Rbt.Receptor>
prm/pocket_docking_5.prm

>  <SCORE>
-15.0332

>  <SCORE.INTER>
-15.0332

>  <SCORE.INTER.CONST>
1

>  <SCORE.INTER.POLAR>
0

>  <SCORE.INTER.ROT>
0

>  <SCORE.INTER.SOLV>
15.3403

>  <SCORE.INTER.VDW>
-18.7356

>  <SCORE.INTER.norm>
-1.25277

>  <SCORE.INTRA>
0

>  <SCORE.INTRA.DIHEDRAL>
0

>  <SCORE.INTRA.DIHEDRAL.0>
0

>  <SCORE.INTRA.POLAR>
0

>  <SCORE.INTRA.POLAR.0>
0

>  <SCORE.INTRA.REPUL>
0

>  <SCORE.INTRA.REPUL.0>
0

>  <SCORE.INTRA.SOLV>
0

>  <SCORE.INTRA.SOLV.lig_0>
-48.1583

>  <SCORE.INTRA.VDW>
0

>  <SCORE.INTRA.VDW.0>
0

>  <SCORE.INTRA.norm>
0

>  <SCORE.RESTR>
0

>  <SCORE.RESTR.CAVITY>
0

>  <SCORE.RESTR.norm>
0

>  <SCORE.SYSTEM>
0

>  <SCORE.SYSTEM.CONST>
0

>  <SCORE.SYSTEM.DIHEDRAL>
0

>  <SCORE.SYSTEM.SOLV>
0

>  <SCORE.SYSTEM.norm>
0

>  <SCORE.heavy>
12

>  <SCORE.norm>
-1.25277

>  <RMSD>
3.064

$$$$
ligand
 OpenBabel11021811503D
libRbt.so/2013.1/901 2013/11/27
 12 13  0  0  0  0  0  0  0  0999 V2000
    4.6378   15.4612    4.0080 C   0  0  0  0  0  0  0  0  0  0  0  0
    5.9867   17.0491    2.9620 C   0  0  0  0  0  0  0  0  0  0  0  0
    3.9460   14.3277    3.9353 N   0  0  0  0  0  0  0  0  0  0  0  0
    6.6130   17.5506    1.8918 N   0  0  0  0  0  0  0  0  0  0  0  0
    5.2639   15.9227    2.9033 N   0  0  0  0  0  0  0  0  0  0  0  0
    4.7260   16.1166    5.1867 N   0  0  0  0  0  0  0  0  0  0  0  0
    6.9022   19.6251    5.4507 N   0  0  0  0  0  0  0  0  0  0  0  0
    6.2429   19.1124    6.5785 C   0  0  0  0  0  0  0  0  0  0  0  0
    5.4932   17.9172    6.4768 N   0  0  0  0  0  0  0  0  0  0  0  0
    5.4367   17.2669    5.2945 C   0  0  0  0  0  0  0  0  0  0  0  0
    6.0975   17.7586    4.1642 C   0  0  0  0  0  0  0  0  0  0  0  0
    6.8366   18.9387    4.2220 C   0  0  0  0  0  0  0  0  0  0  0  0
  1  3  1  0  0  0  0
  1  5  1  0  0  0  0
  1  6  2  0  0  0  0
  2  5  2  0  0  0  0
  2 11  1  0  0  0  0
  2  4  1  0  0  0  0
  6 10  1  0  0  0  0
  7  8  2  0  0  0  0
  7 12  1  0  0  0  0
  8  9  1  0  0  0  0
  9 10  2  0  0  0  0
 10 11  1  0  0  0  0
 11 12  2  0  0  0  0
M  END
>  <CHROM.1>
5.66718516,17.22751673,4.41395973,2.29737270,-0.95390141,-2.00031175

>  <Name>
ligand

>  <RI>
0

>  <Rbt.Current_Directory>
/home/itssahil/PROJECTS/Mol_Feturizer/New_Systems/rnas/4LX5

>  <Rbt.Executable>
rbdock ($Id: //depot/dev/client3/rdock/2013.1/src/exe/rbdock.cxx#4 $)

>  <Rbt.Library>
libRbt.so (2013.1, Build901 2013/11/27)

>  <Rbt.Parameter_File>
/export/apps/rDock/src/rDock_2013.1_src/data/scripts/dock_solv.prm

>  <Rbt.Receptor>
prm/pocket_docking_6.prm

>  <SCORE>
-15.0654

>  <SCORE.INTER>
-15.0654

>  <SCORE.INTER.CONST>
1

>  <SCORE.INTER.POLAR>
0

>  <SCORE.INTER.ROT>
0

>  <SCORE.INTER.SOLV>
15.2786

>  <SCORE.INTER.VDW>
-18.7364

>  <SCORE.INTER.norm>
-1.25545

>  <SCORE.INTRA>
0

>  <SCORE.INTRA.DIHEDRAL>
0

>  <SCORE.INTRA.DIHEDRAL.0>
0

>  <SCORE.INTRA.POLAR>
0

>  <SCORE.INTRA.POLAR.0>
0

>  <SCORE.INTRA.REPUL>
0

>  <SCORE.INTRA.REPUL.0>
0

>  <SCORE.INTRA.SOLV>
0

>  <SCORE.INTRA.SOLV.lig_0>
-48.1583

>  <SCORE.INTRA.VDW>
0

>  <SCORE.INTRA.VDW.0>
0

>  <SCORE.INTRA.norm>
0

>  <SCORE.RESTR>
0

>  <SCORE.RESTR.CAVITY>
0

>  <SCORE.RESTR.norm>
0

>  <SCORE.SYSTEM>
0

>  <SCORE.SYSTEM.CONST>
0

>  <SCORE.SYSTEM.DIHEDRAL>
0

>  <SCORE.SYSTEM.SOLV>
0

>  <SCORE.SYSTEM.norm>
0

>  <SCORE.heavy>
12

>  <SCORE.norm>
-1.25545

>  <RMSD>
3.064

$$$$
ligand
 OpenBabel11021811503D
libRbt.so/2013.1/901 2013/11/27
 12 13  0  0  0  0  0  0  0  0999 V2000
    4.6395   15.4163    3.9988 C   0  0  0  0  0  0  0  0  0  0  0  0
    5.9728   17.0170    2.9523 C   0  0  0  0  0  0  0  0  0  0  0  0
    3.9579   14.2766    3.9260 N   0  0  0  0  0  0  0  0  0  0  0  0
    6.5933   17.5249    1.8818 N   0  0  0  0  0  0  0  0  0  0  0  0
    5.2602   15.8841    2.8937 N   0  0  0  0  0  0  0  0  0  0  0  0
    4.7231   16.0717    5.1778 N   0  0  0  0  0  0  0  0  0  0  0  0
    6.8676   19.5996    5.4417 N   0  0  0  0  0  0  0  0  0  0  0  0
    6.2142   19.0802    6.5699 C   0  0  0  0  0  0  0  0  0  0  0  0
    5.4753   17.8783    6.4683 N   0  0  0  0  0  0  0  0  0  0  0  0
    5.4234   17.2283    5.2856 C   0  0  0  0  0  0  0  0  0  0  0  0
    6.0785   17.7267    4.1549 C   0  0  0  0  0  0  0  0  0  0  0  0
    6.8069   18.9134    4.2126 C   0  0  0  0  0  0  0  0  0  0  0  0
  1  3  1  0  0  0  0
  1  5  1  0  0  0  0
  1  6  2  0  0  0  0
  2  5  2  0  0  0  0
  2 11  1  0  0  0  0
  2  4  1  0  0  0  0
  6 10  1  0  0  0  0
  7  8  2  0  0  0  0
  7 12  1  0  0  0  0
  8  9  1  0  0  0  0
  9 10  2  0  0  0  0
 10 11  1  0  0  0  0
 11 12  2  0  0  0  0
M  END
>  <CHROM.1>
5.65327567,17.19158043,4.40477699,2.29250998,-0.96259505,-2.00363579

>  <Name>
ligand

>  <RI>
0

>  <Rbt.Current_Directory>
/home/itssahil/PROJECTS/Mol_Feturizer/New_Systems/rnas/4LX5

>  <Rbt.Executable>
rbdock ($Id: //depot/dev/client3/rdock/2013.1/src/exe/rbdock.cxx#4 $)

>  <Rbt.Library>
libRbt.so (2013.1, Build901 2013/11/27)

>  <Rbt.Parameter_File>
/export/apps/rDock/src/rDock_2013.1_src/data/scripts/dock_solv.prm

>  <Rbt.Receptor>
prm/pocket_docking_8.prm

>  <SCORE>
-15.0326

>  <SCORE.INTER>
-15.0326

>  <SCORE.INTER.CONST>
1

>  <SCORE.INTER.POLAR>
0

>  <SCORE.INTER.ROT>
0

>  <SCORE.INTER.SOLV>
15.3229

>  <SCORE.INTER.VDW>
-18.7293

>  <SCORE.INTER.norm>
-1.25272

>  <SCORE.INTRA>
0

>  <SCORE.INTRA.DIHEDRAL>
0

>  <SCORE.INTRA.DIHEDRAL.0>
0

>  <SCORE.INTRA.POLAR>
0

>  <SCORE.INTRA.POLAR.0>
0

>  <SCORE.INTRA.REPUL>
0

>  <SCORE.INTRA.REPUL.0>
0

>  <SCORE.INTRA.SOLV>
0

>  <SCORE.INTRA.SOLV.lig_0>
-48.1583

>  <SCORE.INTRA.VDW>
0

>  <SCORE.INTRA.VDW.0>
0

>  <SCORE.INTRA.norm>
0

>  <SCORE.RESTR>
0

>  <SCORE.RESTR.CAVITY>
0

>  <SCORE.RESTR.norm>
0

>  <SCORE.SYSTEM>
0

>  <SCORE.SYSTEM.CONST>
0

>  <SCORE.SYSTEM.DIHEDRAL>
0

>  <SCORE.SYSTEM.SOLV>
0

>  <SCORE.SYSTEM.norm>
0

>  <SCORE.heavy>
12

>  <SCORE.norm>
-1.25272

>  <RMSD>
3.064

$$$$
ligand
 OpenBabel11021811503D
libRbt.so/2013.1/901 2013/11/27
 12 13  0  0  0  0  0  0  0  0999 V2000
    4.6492   15.4330    4.0140 C   0  0  0  0  0  0  0  0  0  0  0  0
    5.9891   17.0227    2.9592 C   0  0  0  0  0  0  0  0  0  0  0  0
    3.9664   14.2936    3.9483 N   0  0  0  0  0  0  0  0  0  0  0  0
    6.6149   17.5204    1.8870 N   0  0  0  0  0  0  0  0  0  0  0  0
    5.2752   15.8903    2.9075 N   0  0  0  0  0  0  0  0  0  0  0  0
    4.7288   16.0985    5.1876 N   0  0  0  0  0  0  0  0  0  0  0  0
    6.8770   19.6258    5.4297 N   0  0  0  0  0  0  0  0  0  0  0  0
    6.2181   19.1171    6.5597 C   0  0  0  0  0  0  0  0  0  0  0  0
    5.4780   17.9154    6.4654 N   0  0  0  0  0  0  0  0  0  0  0  0
    5.4302   17.2552    5.2882 C   0  0  0  0  0  0  0  0  0  0  0  0
    6.0907   17.7428    4.1560 C   0  0  0  0  0  0  0  0  0  0  0  0
    6.8205   18.9290    4.2065 C   0  0  0  0  0  0  0  0  0  0  0  0
  1  3  1  0  0  0  0
  1  5  1  0  0  0  0
  1  6  2  0  0  0  0
  2  5  2  0  0  0  0
  2 11  1  0  0  0  0
  2  4  1  0  0  0  0
  6 10  1  0  0  0  0
  7  8  2  0  0  0  0
  7 12  1  0  0  0  0
  8  9  1  0  0  0  0
  9 10  2  0  0  0  0
 10 11  1  0  0  0  0
 11 12  2  0  0  0  0
M  END
>  <CHROM.1>
5.66374365,17.21042344,4.40873613,2.28682413,-0.95957850,-2.01703963

>  <Name>
ligand

>  <RI>
0

>  <Rbt.Current_Directory>
/home/itssahil/PROJECTS/Mol_Feturizer/New_Systems/rnas/4LX5

>  <Rbt.Executable>
rbdock ($Id: //depot/dev/client3/rdock/2013.1/src/exe/rbdock.cxx#4 $)

>  <Rbt.Library>
libRbt.so (2013.1, Build901 2013/11/27)

>  <Rbt.Parameter_File>
/export/apps/rDock/src/rDock_2013.1_src/data/scripts/dock_solv.prm

>  <Rbt.Receptor>
prm/pocket_docking_5.prm

>  <SCORE>
-15.0391

>  <SCORE.INTER>
-15.0391

>  <SCORE.INTER.CONST>
1

>  <SCORE.INTER.POLAR>
0

>  <SCORE.INTER.ROT>
0

>  <SCORE.INTER.SOLV>
15.3975

>  <SCORE.INTER.VDW>
-18.7586

>  <SCORE.INTER.norm>
-1.25326

>  <SCORE.INTRA>
0

>  <SCORE.INTRA.DIHEDRAL>
0

>  <SCORE.INTRA.DIHEDRAL.0>
0

>  <SCORE.INTRA.POLAR>
0

>  <SCORE.INTRA.POLAR.0>
0

>  <SCORE.INTRA.REPUL>
0

>  <SCORE.INTRA.REPUL.0>
0

>  <SCORE.INTRA.SOLV>
0

>  <SCORE.INTRA.SOLV.lig_0>
-48.1583

>  <SCORE.INTRA.VDW>
0

>  <SCORE.INTRA.VDW.0>
0

>  <SCORE.INTRA.norm>
0

>  <SCORE.RESTR>
0

>  <SCORE.RESTR.CAVITY>
0

>  <SCORE.RESTR.norm>
0

>  <SCORE.SYSTEM>
0

>  <SCORE.SYSTEM.CONST>
0

>  <SCORE.SYSTEM.DIHEDRAL>
0

>  <SCORE.SYSTEM.SOLV>
0

>  <SCORE.SYSTEM.norm>
0

>  <SCORE.heavy>
12

>  <SCORE.norm>
-1.25326

>  <RMSD>
3.065

$$$$
ligand
 OpenBabel11021811503D
libRbt.so/2013.1/901 2013/11/27
 12 13  0  0  0  0  0  0  0  0999 V2000
    4.6533   15.4244    4.0136 C   0  0  0  0  0  0  0  0  0  0  0  0
    5.9793   17.0245    2.9571 C   0  0  0  0  0  0  0  0  0  0  0  0
    3.9790   14.2799    3.9488 N   0  0  0  0  0  0  0  0  0  0  0  0
    6.5995   17.5273    1.8839 N   0  0  0  0  0  0  0  0  0  0  0  0
    5.2739   15.8868    2.9062 N   0  0  0  0  0  0  0  0  0  0  0  0
    4.7297   16.0902    5.1873 N   0  0  0  0  0  0  0  0  0  0  0  0
    6.8516   19.6336    5.4268 N   0  0  0  0  0  0  0  0  0  0  0  0
    6.1984   19.1197    6.5577 C   0  0  0  0  0  0  0  0  0  0  0  0
    5.4673   17.9124    6.4643 N   0  0  0  0  0  0  0  0  0  0  0  0
    5.4225   17.2521    5.2870 C   0  0  0  0  0  0  0  0  0  0  0  0
    6.0774   17.7450    4.1538 C   0  0  0  0  0  0  0  0  0  0  0  0
    6.7983   18.9367    4.2034 C   0  0  0  0  0  0  0  0  0  0  0  0
  1  3  1  0  0  0  0
  1  5  1  0  0  0  0
  1  6  2  0  0  0  0
  2  5  2  0  0  0  0
  2 11  1  0  0  0  0
  2  4  1  0  0  0  0
  6 10  1  0  0  0  0
  7  8  2  0  0  0  0
  7 12  1  0  0  0  0
  8  9  1  0  0  0  0
  9 10  2  0  0  0  0
 10 11  1  0  0  0  0
 11 12  2  0  0  0  0
M  END
>  <CHROM.1>
5.65495893,17.20938902,4.40715605,2.28373129,-0.96714464,-2.01931403

>  <Name>
ligand

>  <RI>
0

>  <Rbt.Current_Directory>
/home/itssahil/PROJECTS/Mol_Feturizer/New_Systems/rnas/4LX5

>  <Rbt.Executable>
rbdock ($Id: //depot/dev/client3/rdock/2013.1/src/exe/rbdock.cxx#4 $)

>  <Rbt.Library>
libRbt.so (2013.1, Build901 2013/11/27)

>  <Rbt.Parameter_File>
/export/apps/rDock/src/rDock_2013.1_src/data/scripts/dock_solv.prm

>  <Rbt.Receptor>
prm/pocket_docking_5.prm

>  <SCORE>
-15.0387

>  <SCORE.INTER>
-15.0387

>  <SCORE.INTER.CONST>
1

>  <SCORE.INTER.POLAR>
0

>  <SCORE.INTER.ROT>
0

>  <SCORE.INTER.SOLV>
15.4524

>  <SCORE.INTER.VDW>
-18.7766

>  <SCORE.INTER.norm>
-1.25322

>  <SCORE.INTRA>
0

>  <SCORE.INTRA.DIHEDRAL>
0

>  <SCORE.INTRA.DIHEDRAL.0>
0

>  <SCORE.INTRA.POLAR>
0

>  <SCORE.INTRA.POLAR.0>
0

>  <SCORE.INTRA.REPUL>
0

>  <SCORE.INTRA.REPUL.0>
0

>  <SCORE.INTRA.SOLV>
0

>  <SCORE.INTRA.SOLV.lig_0>
-48.1583

>  <SCORE.INTRA.VDW>
0

>  <SCORE.INTRA.VDW.0>
0

>  <SCORE.INTRA.norm>
0

>  <SCORE.RESTR>
0

>  <SCORE.RESTR.CAVITY>
0

>  <SCORE.RESTR.norm>
0

>  <SCORE.SYSTEM>
0

>  <SCORE.SYSTEM.CONST>
0

>  <SCORE.SYSTEM.DIHEDRAL>
0

>  <SCORE.SYSTEM.SOLV>
0

>  <SCORE.SYSTEM.norm>
0

>  <SCORE.heavy>
12

>  <SCORE.norm>
-1.25322

>  <RMSD>
3.065

$$$$
ligand
 OpenBabel11021811503D
libRbt.so/2013.1/901 2013/11/27
 12 13  0  0  0  0  0  0  0  0999 V2000
    4.6448   15.4300    4.0152 C   0  0  0  0  0  0  0  0  0  0  0  0
    5.9718   17.0247    2.9518 C   0  0  0  0  0  0  0  0  0  0  0  0
    3.9652   14.2884    3.9538 N   0  0  0  0  0  0  0  0  0  0  0  0
    6.5882   17.5251    1.8753 N   0  0  0  0  0  0  0  0  0  0  0  0
    5.2613   15.8900    2.9045 N   0  0  0  0  0  0  0  0  0  0  0  0
    4.7307   16.0951    5.1886 N   0  0  0  0  0  0  0  0  0  0  0  0
    6.8691   19.6292    5.4174 N   0  0  0  0  0  0  0  0  0  0  0  0
    6.2201   19.1177    6.5517 C   0  0  0  0  0  0  0  0  0  0  0  0
    5.4832   17.9137    6.4621 N   0  0  0  0  0  0  0  0  0  0  0  0
    5.4290   17.2540    5.2849 C   0  0  0  0  0  0  0  0  0  0  0  0
    6.0797   17.7444    4.1482 C   0  0  0  0  0  0  0  0  0  0  0  0
    6.8060   18.9329    4.1941 C   0  0  0  0  0  0  0  0  0  0  0  0
  1  3  1  0  0  0  0
  1  5  1  0  0  0  0
  1  6  2  0  0  0  0
  2  5  2  0  0  0  0
  2 11  1  0  0  0  0
  2  4  1  0  0  0  0
  6 10  1  0  0  0  0
  7  8  2  0  0  0  0
  7 12  1  0  0  0  0
  8  9  1  0  0  0  0
  9 10  2  0  0  0  0
 10 11  1  0  0  0  0
 11 12  2  0  0  0  0
M  END
>  <CHROM.1>
5.65636403,17.21049046,4.40371730,2.29584216,-0.96561773,-2.00903462

>  <Name>
ligand

>  <RI>
0

>  <Rbt.Current_Directory>
/home/itssahil/PROJECTS/Mol_Feturizer/New_Systems/rnas/4LX5

>  <Rbt.Executable>
rbdock ($Id: //depot/dev/client3/rdock/2013.1/src/exe/rbdock.cxx#4 $)

>  <Rbt.Library>
libRbt.so (2013.1, Build901 2013/11/27)

>  <Rbt.Parameter_File>
/export/apps/rDock/src/rDock_2013.1_src/data/scripts/dock_solv.prm

>  <Rbt.Receptor>
prm/pocket_docking_6.prm

>  <SCORE>
-15.0463

>  <SCORE.INTER>
-15.0463

>  <SCORE.INTER.CONST>
1

>  <SCORE.INTER.POLAR>
0

>  <SCORE.INTER.ROT>
0

>  <SCORE.INTER.SOLV>
15.3763

>  <SCORE.INTER.VDW>
-18.7563

>  <SCORE.INTER.norm>
-1.25386

>  <SCORE.INTRA>
0

>  <SCORE.INTRA.DIHEDRAL>
0

>  <SCORE.INTRA.DIHEDRAL.0>
0

>  <SCORE.INTRA.POLAR>
0

>  <SCORE.INTRA.POLAR.0>
0

>  <SCORE.INTRA.REPUL>
0

>  <SCORE.INTRA.REPUL.0>
0

>  <SCORE.INTRA.SOLV>
0

>  <SCORE.INTRA.SOLV.lig_0>
-48.1583

>  <SCORE.INTRA.VDW>
0

>  <SCORE.INTRA.VDW.0>
0

>  <SCORE.INTRA.norm>
0

>  <SCORE.RESTR>
0

>  <SCORE.RESTR.CAVITY>
0

>  <SCORE.RESTR.norm>
0

>  <SCORE.SYSTEM>
0

>  <SCORE.SYSTEM.CONST>
0

>  <SCORE.SYSTEM.DIHEDRAL>
0

>  <SCORE.SYSTEM.SOLV>
0

>  <SCORE.SYSTEM.norm>
0

>  <SCORE.heavy>
12

>  <SCORE.norm>
-1.25386

>  <RMSD>
3.065

$$$$
ligand
 OpenBabel11021811503D
libRbt.so/2013.1/901 2013/11/27
 12 13  0  0  0  0  0  0  0  0999 V2000
    4.6684   15.4515    4.0084 C   0  0  0  0  0  0  0  0  0  0  0  0
    6.0580   17.0230    2.9915 C   0  0  0  0  0  0  0  0  0  0  0  0
    3.9733   14.3208    3.9240 N   0  0  0  0  0  0  0  0  0  0  0  0
    6.7204   17.5117    1.9372 N   0  0  0  0  0  0  0  0  0  0  0  0
    5.3315   15.8997    2.9201 N   0  0  0  0  0  0  0  0  0  0  0  0
    4.7229   16.1170    5.1835 N   0  0  0  0  0  0  0  0  0  0  0  0
    6.9081   19.6169    5.4848 N   0  0  0  0  0  0  0  0  0  0  0  0
    6.2109   19.1177    6.5957 C   0  0  0  0  0  0  0  0  0  0  0  0
    5.4585   17.9255    6.4811 N   0  0  0  0  0  0  0  0  0  0  0  0
    5.4359   17.2648    5.3034 C   0  0  0  0  0  0  0  0  0  0  0  0
    6.1346   17.7428    4.1902 C   0  0  0  0  0  0  0  0  0  0  0  0
    6.8777   18.9197    4.2608 C   0  0  0  0  0  0  0  0  0  0  0  0
  1  3  1  0  0  0  0
  1  5  1  0  0  0  0
  1  6  2  0  0  0  0
  2  5  2  0  0  0  0
  2 11  1  0  0  0  0
  2  4  1  0  0  0  0
  6 10  1  0  0  0  0
  7  8  2  0  0  0  0
  7 12  1  0  0  0  0
  8  9  1  0  0  0  0
  9 10  2  0  0  0  0
 10 11  1  0  0  0  0
 11 12  2  0  0  0  0
M  END
>  <CHROM.1>
5.69383999,17.21621364,4.43098524,2.25272181,-0.93548780,-2.04549298

>  <Name>
ligand

>  <RI>
0

>  <Rbt.Current_Directory>
/home/itssahil/PROJECTS/Mol_Feturizer/New_Systems/rnas/4LX5

>  <Rbt.Executable>
rbdock ($Id: //depot/dev/client3/rdock/2013.1/src/exe/rbdock.cxx#4 $)

>  <Rbt.Library>
libRbt.so (2013.1, Build901 2013/11/27)

>  <Rbt.Parameter_File>
/export/apps/rDock/src/rDock_2013.1_src/data/scripts/dock_solv.prm

>  <Rbt.Receptor>
prm/pocket_docking_8.prm

>  <SCORE>
-15.0125

>  <SCORE.INTER>
-15.0125

>  <SCORE.INTER.CONST>
1

>  <SCORE.INTER.POLAR>
0

>  <SCORE.INTER.ROT>
0

>  <SCORE.INTER.SOLV>
15.5198

>  <SCORE.INTER.VDW>
-18.7816

>  <SCORE.INTER.norm>
-1.25104

>  <SCORE.INTRA>
0

>  <SCORE.INTRA.DIHEDRAL>
0

>  <SCORE.INTRA.DIHEDRAL.0>
0

>  <SCORE.INTRA.POLAR>
0

>  <SCORE.INTRA.POLAR.0>
0

>  <SCORE.INTRA.REPUL>
0

>  <SCORE.INTRA.REPUL.0>
0

>  <SCORE.INTRA.SOLV>
0

>  <SCORE.INTRA.SOLV.lig_0>
-48.1583

>  <SCORE.INTRA.VDW>
0

>  <SCORE.INTRA.VDW.0>
0

>  <SCORE.INTRA.norm>
0

>  <SCORE.RESTR>
0

>  <SCORE.RESTR.CAVITY>
0

>  <SCORE.RESTR.norm>
0

>  <SCORE.SYSTEM>
0

>  <SCORE.SYSTEM.CONST>
0

>  <SCORE.SYSTEM.DIHEDRAL>
0

>  <SCORE.SYSTEM.SOLV>
0

>  <SCORE.SYSTEM.norm>
0

>  <SCORE.heavy>
12

>  <SCORE.norm>
-1.25104

>  <RMSD>
3.065

$$$$
ligand
 OpenBabel11021811503D
libRbt.so/2013.1/901 2013/11/27
 12 13  0  0  0  0  0  0  0  0999 V2000
    4.6422   15.4116    4.0103 C   0  0  0  0  0  0  0  0  0  0  0  0
    5.9623   17.0143    2.9502 C   0  0  0  0  0  0  0  0  0  0  0  0
    3.9639   14.2695    3.9454 N   0  0  0  0  0  0  0  0  0  0  0  0
    6.5731   17.5217    1.8739 N   0  0  0  0  0  0  0  0  0  0  0  0
    5.2530   15.8789    2.8996 N   0  0  0  0  0  0  0  0  0  0  0  0
    4.7324   16.0701    5.1872 N   0  0  0  0  0  0  0  0  0  0  0  0
    6.8671   19.6057    5.4267 N   0  0  0  0  0  0  0  0  0  0  0  0
    6.2239   19.0868    6.5610 C   0  0  0  0  0  0  0  0  0  0  0  0
    5.4882   17.8823    6.4677 N   0  0  0  0  0  0  0  0  0  0  0  0
    5.4296   17.2293    5.2870 C   0  0  0  0  0  0  0  0  0  0  0  0
    6.0746   17.7271    4.1502 C   0  0  0  0  0  0  0  0  0  0  0  0
    6.7995   18.9164    4.1998 C   0  0  0  0  0  0  0  0  0  0  0  0
  1  3  1  0  0  0  0
  1  5  1  0  0  0  0
  1  6  2  0  0  0  0
  2  5  2  0  0  0  0
  2 11  1  0  0  0  0
  2  4  1  0  0  0  0
  6 10  1  0  0  0  0
  7  8  2  0  0  0  0
  7 12  1  0  0  0  0
  8  9  1  0  0  0  0
  9 10  2  0  0  0  0
 10 11  1  0  0  0  0
 11 12  2  0  0  0  0
M  END
>  <CHROM.1>
5.65307039,17.19122920,4.40456326,2.30201204,-0.96873233,-1.99819092

>  <Name>
ligand

>  <RI>
0

>  <Rbt.Current_Directory>
/home/itssahil/PROJECTS/Mol_Feturizer/New_Systems/rnas/4LX5

>  <Rbt.Executable>
rbdock ($Id: //depot/dev/client3/rdock/2013.1/src/exe/rbdock.cxx#4 $)

>  <Rbt.Library>
libRbt.so (2013.1, Build901 2013/11/27)

>  <Rbt.Parameter_File>
/export/apps/rDock/src/rDock_2013.1_src/data/scripts/dock_solv.prm

>  <Rbt.Receptor>
prm/blind_docking_40.prm

>  <SCORE>
-15.0313

>  <SCORE.INTER>
-15.0313

>  <SCORE.INTER.CONST>
1

>  <SCORE.INTER.POLAR>
0

>  <SCORE.INTER.ROT>
0

>  <SCORE.INTER.SOLV>
15.3456

>  <SCORE.INTER.VDW>
-18.7361

>  <SCORE.INTER.norm>
-1.25261

>  <SCORE.INTRA>
0

>  <SCORE.INTRA.DIHEDRAL>
0

>  <SCORE.INTRA.DIHEDRAL.0>
0

>  <SCORE.INTRA.POLAR>
0

>  <SCORE.INTRA.POLAR.0>
0

>  <SCORE.INTRA.REPUL>
0

>  <SCORE.INTRA.REPUL.0>
0

>  <SCORE.INTRA.SOLV>
0

>  <SCORE.INTRA.SOLV.lig_0>
-48.1583

>  <SCORE.INTRA.VDW>
0

>  <SCORE.INTRA.VDW.0>
0

>  <SCORE.INTRA.norm>
0

>  <SCORE.RESTR>
0

>  <SCORE.RESTR.CAVITY>
0

>  <SCORE.RESTR.norm>
0

>  <SCORE.SYSTEM>
0

>  <SCORE.SYSTEM.CONST>
0

>  <SCORE.SYSTEM.DIHEDRAL>
0

>  <SCORE.SYSTEM.SOLV>
0

>  <SCORE.SYSTEM.norm>
0

>  <SCORE.heavy>
12

>  <SCORE.norm>
-1.25261

>  <RMSD>
3.066

$$$$
ligand
 OpenBabel11021811503D
libRbt.so/2013.1/901 2013/11/27
 12 13  0  0  0  0  0  0  0  0999 V2000
    4.5697   15.3095    3.9547 C   0  0  0  0  0  0  0  0  0  0  0  0
    5.8325   16.9579    2.8950 C   0  0  0  0  0  0  0  0  0  0  0  0
    3.9021   14.1616    3.8808 N   0  0  0  0  0  0  0  0  0  0  0  0
    6.3980   17.5036    1.8127 N   0  0  0  0  0  0  0  0  0  0  0  0
    5.1344   15.8160    2.8367 N   0  0  0  0  0  0  0  0  0  0  0  0
    4.6955   15.9347    5.1463 N   0  0  0  0  0  0  0  0  0  0  0  0
    6.7984   19.4874    5.4122 N   0  0  0  0  0  0  0  0  0  0  0  0
    6.2028   18.9282    6.5532 C   0  0  0  0  0  0  0  0  0  0  0  0
    5.4776   17.7181    6.4513 N   0  0  0  0  0  0  0  0  0  0  0  0
    5.3831   17.0989    5.2548 C   0  0  0  0  0  0  0  0  0  0  0  0
    5.9806   17.6371    4.1106 C   0  0  0  0  0  0  0  0  0  0  0  0
    6.6937   18.8331    4.1687 C   0  0  0  0  0  0  0  0  0  0  0  0
  1  3  1  0  0  0  0
  1  5  1  0  0  0  0
  1  6  2  0  0  0  0
  2  5  2  0  0  0  0
  2 11  1  0  0  0  0
  2  4  1  0  0  0  0
  6 10  1  0  0  0  0
  7  8  2  0  0  0  0
  7 12  1  0  0  0  0
  8  9  1  0  0  0  0
  9 10  2  0  0  0  0
 10 11  1  0  0  0  0
 11 12  2  0  0  0  0
M  END
>  <CHROM.1>
5.57462214,17.08901823,4.36414651,2.35447931,-0.99326965,-1.92543472

>  <Name>
ligand

>  <RI>
0

>  <Rbt.Current_Directory>
/home/itssahil/PROJECTS/Mol_Feturizer/New_Systems/rnas/4LX5

>  <Rbt.Executable>
rbdock ($Id: //depot/dev/client3/rdock/2013.1/src/exe/rbdock.cxx#4 $)

>  <Rbt.Library>
libRbt.so (2013.1, Build901 2013/11/27)

>  <Rbt.Parameter_File>
/export/apps/rDock/src/rDock_2013.1_src/data/scripts/dock_solv.prm

>  <Rbt.Receptor>
prm/pocket_docking_5.prm

>  <SCORE>
-14.7301

>  <SCORE.INTER>
-14.7301

>  <SCORE.INTER.CONST>
1

>  <SCORE.INTER.POLAR>
0

>  <SCORE.INTER.ROT>
0

>  <SCORE.INTER.SOLV>
14.94

>  <SCORE.INTER.VDW>
-18.4001

>  <SCORE.INTER.norm>
-1.22751

>  <SCORE.INTRA>
0

>  <SCORE.INTRA.DIHEDRAL>
0

>  <SCORE.INTRA.DIHEDRAL.0>
0

>  <SCORE.INTRA.POLAR>
0

>  <SCORE.INTRA.POLAR.0>
0

>  <SCORE.INTRA.REPUL>
0

>  <SCORE.INTRA.REPUL.0>
0

>  <SCORE.INTRA.SOLV>
0

>  <SCORE.INTRA.SOLV.lig_0>
-48.1583

>  <SCORE.INTRA.VDW>
0

>  <SCORE.INTRA.VDW.0>
0

>  <SCORE.INTRA.norm>
0

>  <SCORE.RESTR>
0

>  <SCORE.RESTR.CAVITY>
0

>  <SCORE.RESTR.norm>
0

>  <SCORE.SYSTEM>
0

>  <SCORE.SYSTEM.CONST>
0

>  <SCORE.SYSTEM.DIHEDRAL>
0

>  <SCORE.SYSTEM.SOLV>
0

>  <SCORE.SYSTEM.norm>
0

>  <SCORE.heavy>
12

>  <SCORE.norm>
-1.22751

>  <RMSD>
3.066

$$$$
ligand
 OpenBabel11021811503D
libRbt.so/2013.1/901 2013/11/27
 12 13  0  0  0  0  0  0  0  0999 V2000
    4.6383   15.4118    4.0121 C   0  0  0  0  0  0  0  0  0  0  0  0
    5.9646   17.0076    2.9495 C   0  0  0  0  0  0  0  0  0  0  0  0
    3.9542   14.2730    3.9485 N   0  0  0  0  0  0  0  0  0  0  0  0
    6.5761   17.5118    1.8721 N   0  0  0  0  0  0  0  0  0  0  0  0
    5.2496   15.8758    2.9002 N   0  0  0  0  0  0  0  0  0  0  0  0
    4.7338   16.0699    5.1887 N   0  0  0  0  0  0  0  0  0  0  0  0
    6.8865   19.5949    5.4241 N   0  0  0  0  0  0  0  0  0  0  0  0
    6.2426   19.0794    6.5595 C   0  0  0  0  0  0  0  0  0  0  0  0
    5.5009   17.8786    6.4677 N   0  0  0  0  0  0  0  0  0  0  0  0
    5.4370   17.2257    5.2871 C   0  0  0  0  0  0  0  0  0  0  0  0
    6.0825   17.7201    4.1492 C   0  0  0  0  0  0  0  0  0  0  0  0
    6.8134   18.9058    4.1973 C   0  0  0  0  0  0  0  0  0  0  0  0
  1  3  1  0  0  0  0
  1  5  1  0  0  0  0
  1  6  2  0  0  0  0
  2  5  2  0  0  0  0
  2 11  1  0  0  0  0
  2  4  1  0  0  0  0
  6 10  1  0  0  0  0
  7  8  2  0  0  0  0
  7 12  1  0  0  0  0
  8  9  1  0  0  0  0
  9 10  2  0  0  0  0
 10 11  1  0  0  0  0
 11 12  2  0  0  0  0
M  END
>  <CHROM.1>
5.65873042,17.18633694,4.40433751,2.30835162,-0.96488084,-1.99313062

>  <Name>
ligand

>  <RI>
0

>  <Rbt.Current_Directory>
/home/itssahil/PROJECTS/Mol_Feturizer/New_Systems/rnas/4LX5

>  <Rbt.Executable>
rbdock ($Id: //depot/dev/client3/rdock/2013.1/src/exe/rbdock.cxx#4 $)

>  <Rbt.Library>
libRbt.so (2013.1, Build901 2013/11/27)

>  <Rbt.Parameter_File>
/export/apps/rDock/src/rDock_2013.1_src/data/scripts/dock_solv.prm

>  <Rbt.Receptor>
prm/pocket_docking_5.prm

>  <SCORE>
-15.0243

>  <SCORE.INTER>
-15.0243

>  <SCORE.INTER.CONST>
1

>  <SCORE.INTER.POLAR>
0

>  <SCORE.INTER.ROT>
0

>  <SCORE.INTER.SOLV>
15.3037

>  <SCORE.INTER.VDW>
-18.7174

>  <SCORE.INTER.norm>
-1.25203

>  <SCORE.INTRA>
0

>  <SCORE.INTRA.DIHEDRAL>
0

>  <SCORE.INTRA.DIHEDRAL.0>
0

>  <SCORE.INTRA.POLAR>
0

>  <SCORE.INTRA.POLAR.0>
0

>  <SCORE.INTRA.REPUL>
0

>  <SCORE.INTRA.REPUL.0>
0

>  <SCORE.INTRA.SOLV>
0

>  <SCORE.INTRA.SOLV.lig_0>
-48.1583

>  <SCORE.INTRA.VDW>
0

>  <SCORE.INTRA.VDW.0>
0

>  <SCORE.INTRA.norm>
0

>  <SCORE.RESTR>
0

>  <SCORE.RESTR.CAVITY>
0

>  <SCORE.RESTR.norm>
0

>  <SCORE.SYSTEM>
0

>  <SCORE.SYSTEM.CONST>
0

>  <SCORE.SYSTEM.DIHEDRAL>
0

>  <SCORE.SYSTEM.SOLV>
0

>  <SCORE.SYSTEM.norm>
0

>  <SCORE.heavy>
12

>  <SCORE.norm>
-1.25203

>  <RMSD>
3.066

$$$$
ligand
 OpenBabel11021811503D
libRbt.so/2013.1/901 2013/11/27
 12 13  0  0  0  0  0  0  0  0999 V2000
    4.6454   15.4356    4.0082 C   0  0  0  0  0  0  0  0  0  0  0  0
    5.9901   17.0338    2.9726 C   0  0  0  0  0  0  0  0  0  0  0  0
    3.9638   14.2962    3.9304 N   0  0  0  0  0  0  0  0  0  0  0  0
    6.6215   17.5396    1.9075 N   0  0  0  0  0  0  0  0  0  0  0  0
    5.2773   15.9013    2.9086 N   0  0  0  0  0  0  0  0  0  0  0  0
    4.7179   16.0926    5.1870 N   0  0  0  0  0  0  0  0  0  0  0  0
    6.8623   19.6194    5.4668 N   0  0  0  0  0  0  0  0  0  0  0  0
    6.1974   19.1021    6.5893 C   0  0  0  0  0  0  0  0  0  0  0  0
    5.4587   17.9007    6.4822 N   0  0  0  0  0  0  0  0  0  0  0  0
    5.4179   17.2489    5.3000 C   0  0  0  0  0  0  0  0  0  0  0  0
    6.0845   17.7452    4.1750 C   0  0  0  0  0  0  0  0  0  0  0  0
    6.8132   18.9315    4.2382 C   0  0  0  0  0  0  0  0  0  0  0  0
  1  3  1  0  0  0  0
  1  5  1  0  0  0  0
  1  6  2  0  0  0  0
  2  5  2  0  0  0  0
  2 11  1  0  0  0  0
  2  4  1  0  0  0  0
  6 10  1  0  0  0  0
  7  8  2  0  0  0  0
  7 12  1  0  0  0  0
  8  9  1  0  0  0  0
  9 10  2  0  0  0  0
 10 11  1  0  0  0  0
 11 12  2  0  0  0  0
M  END
>  <CHROM.1>
5.65647807,17.21071482,4.42153955,2.27751107,-0.95776554,-2.01740136

>  <Name>
ligand

>  <RI>
0

>  <Rbt.Current_Directory>
/home/itssahil/PROJECTS/Mol_Feturizer/New_Systems/rnas/4LX5

>  <Rbt.Executable>
rbdock ($Id: //depot/dev/client3/rdock/2013.1/src/exe/rbdock.cxx#4 $)

>  <Rbt.Library>
libRbt.so (2013.1, Build901 2013/11/27)

>  <Rbt.Parameter_File>
/export/apps/rDock/src/rDock_2013.1_src/data/scripts/dock_solv.prm

>  <Rbt.Receptor>
prm/pocket_docking_7.prm

>  <SCORE>
-15.0291

>  <SCORE.INTER>
-15.0291

>  <SCORE.INTER.CONST>
1

>  <SCORE.INTER.POLAR>
0

>  <SCORE.INTER.ROT>
0

>  <SCORE.INTER.SOLV>
15.3642

>  <SCORE.INTER.VDW>
-18.7408

>  <SCORE.INTER.norm>
-1.25243

>  <SCORE.INTRA>
0

>  <SCORE.INTRA.DIHEDRAL>
0

>  <SCORE.INTRA.DIHEDRAL.0>
0

>  <SCORE.INTRA.POLAR>
0

>  <SCORE.INTRA.POLAR.0>
0

>  <SCORE.INTRA.REPUL>
0

>  <SCORE.INTRA.REPUL.0>
0

>  <SCORE.INTRA.SOLV>
0

>  <SCORE.INTRA.SOLV.lig_0>
-48.1583

>  <SCORE.INTRA.VDW>
0

>  <SCORE.INTRA.VDW.0>
0

>  <SCORE.INTRA.norm>
0

>  <SCORE.RESTR>
0

>  <SCORE.RESTR.CAVITY>
0

>  <SCORE.RESTR.norm>
0

>  <SCORE.SYSTEM>
0

>  <SCORE.SYSTEM.CONST>
0

>  <SCORE.SYSTEM.DIHEDRAL>
0

>  <SCORE.SYSTEM.SOLV>
0

>  <SCORE.SYSTEM.norm>
0

>  <SCORE.heavy>
12

>  <SCORE.norm>
-1.25243

>  <RMSD>
3.066

$$$$
ligand
 OpenBabel11021811503D
libRbt.so/2013.1/901 2013/11/27
 12 13  0  0  0  0  0  0  0  0999 V2000
    4.6553   15.4158    4.0243 C   0  0  0  0  0  0  0  0  0  0  0  0
    5.9797   17.0098    2.9566 C   0  0  0  0  0  0  0  0  0  0  0  0
    3.9791   14.2720    3.9665 N   0  0  0  0  0  0  0  0  0  0  0  0
    6.5965   17.5075    1.8792 N   0  0  0  0  0  0  0  0  0  0  0  0
    5.2724   15.8729    2.9128 N   0  0  0  0  0  0  0  0  0  0  0  0
    4.7371   16.0860    5.1951 N   0  0  0  0  0  0  0  0  0  0  0  0
    6.8650   19.6272    5.4129 N   0  0  0  0  0  0  0  0  0  0  0  0
    6.2154   19.1186    6.5482 C   0  0  0  0  0  0  0  0  0  0  0  0
    5.4821   17.9121    6.4623 N   0  0  0  0  0  0  0  0  0  0  0  0
    5.4319   17.2473    5.2878 C   0  0  0  0  0  0  0  0  0  0  0  0
    6.0833   17.7348    4.1502 C   0  0  0  0  0  0  0  0  0  0  0  0
    6.8061   18.9256    4.1925 C   0  0  0  0  0  0  0  0  0  0  0  0
  1  3  1  0  0  0  0
  1  5  1  0  0  0  0
  1  6  2  0  0  0  0
  2  5  2  0  0  0  0
  2 11  1  0  0  0  0
  2  4  1  0  0  0  0
  6 10  1  0  0  0  0
  7  8  2  0  0  0  0
  7 12  1  0  0  0  0
  8  9  1  0  0  0  0
  9 10  2  0  0  0  0
 10 11  1  0  0  0  0
 11 12  2  0  0  0  0
M  END
>  <CHROM.1>
5.66100958,17.20077917,4.40718522,2.29080281,-0.96742597,-2.01736806

>  <Name>
ligand

>  <RI>
0

>  <Rbt.Current_Directory>
/home/itssahil/PROJECTS/Mol_Feturizer/New_Systems/rnas/4LX5

>  <Rbt.Executable>
rbdock ($Id: //depot/dev/client3/rdock/2013.1/src/exe/rbdock.cxx#4 $)

>  <Rbt.Library>
libRbt.so (2013.1, Build901 2013/11/27)

>  <Rbt.Parameter_File>
/export/apps/rDock/src/rDock_2013.1_src/data/scripts/dock_solv.prm

>  <Rbt.Receptor>
prm/blind_docking_100.prm

>  <SCORE>
-15.0372

>  <SCORE.INTER>
-15.0372

>  <SCORE.INTER.CONST>
1

>  <SCORE.INTER.POLAR>
0

>  <SCORE.INTER.ROT>
0

>  <SCORE.INTER.SOLV>
15.4659

>  <SCORE.INTER.VDW>
-18.7801

>  <SCORE.INTER.norm>
-1.2531

>  <SCORE.INTRA>
0

>  <SCORE.INTRA.DIHEDRAL>
0

>  <SCORE.INTRA.DIHEDRAL.0>
0

>  <SCORE.INTRA.POLAR>
0

>  <SCORE.INTRA.POLAR.0>
0

>  <SCORE.INTRA.REPUL>
0

>  <SCORE.INTRA.REPUL.0>
0

>  <SCORE.INTRA.SOLV>
0

>  <SCORE.INTRA.SOLV.lig_0>
-48.1583

>  <SCORE.INTRA.VDW>
0

>  <SCORE.INTRA.VDW.0>
0

>  <SCORE.INTRA.norm>
0

>  <SCORE.RESTR>
0

>  <SCORE.RESTR.CAVITY>
0

>  <SCORE.RESTR.norm>
0

>  <SCORE.SYSTEM>
0

>  <SCORE.SYSTEM.CONST>
0

>  <SCORE.SYSTEM.DIHEDRAL>
0

>  <SCORE.SYSTEM.SOLV>
0

>  <SCORE.SYSTEM.norm>
0

>  <SCORE.heavy>
12

>  <SCORE.norm>
-1.2531

>  <RMSD>
3.067

$$$$
ligand
 OpenBabel11021811503D
libRbt.so/2013.1/901 2013/11/27
 12 13  0  0  0  0  0  0  0  0999 V2000
    4.6619   15.4401    4.0138 C   0  0  0  0  0  0  0  0  0  0  0  0
    6.0493   17.0082    2.9887 C   0  0  0  0  0  0  0  0  0  0  0  0
    3.9667   14.3090    3.9346 N   0  0  0  0  0  0  0  0  0  0  0  0
    6.7096   17.4933    1.9315 N   0  0  0  0  0  0  0  0  0  0  0  0
    5.3228   15.8846    2.9226 N   0  0  0  0  0  0  0  0  0  0  0  0
    4.7186   16.1097    5.1864 N   0  0  0  0  0  0  0  0  0  0  0  0
    6.9040   19.6108    5.4713 N   0  0  0  0  0  0  0  0  0  0  0  0
    6.2089   19.1155    6.5853 C   0  0  0  0  0  0  0  0  0  0  0  0
    5.4565   17.9227    6.4763 N   0  0  0  0  0  0  0  0  0  0  0  0
    5.4316   17.2579    5.3010 C   0  0  0  0  0  0  0  0  0  0  0  0
    6.1281   17.7322    4.1847 C   0  0  0  0  0  0  0  0  0  0  0  0
    6.8713   18.9094    4.2498 C   0  0  0  0  0  0  0  0  0  0  0  0
  1  3  1  0  0  0  0
  1  5  1  0  0  0  0
  1  6  2  0  0  0  0
  2  5  2  0  0  0  0
  2 11  1  0  0  0  0
  2  4  1  0  0  0  0
  6 10  1  0  0  0  0
  7  8  2  0  0  0  0
  7 12  1  0  0  0  0
  8  9  1  0  0  0  0
  9 10  2  0  0  0  0
 10 11  1  0  0  0  0
 11 12  2  0  0  0  0
M  END
>  <CHROM.1>
5.68790930,17.20637520,4.42820606,2.25553715,-0.93645336,-2.04670146

>  <Name>
ligand

>  <RI>
0

>  <Rbt.Current_Directory>
/home/itssahil/PROJECTS/Mol_Feturizer/New_Systems/rnas/4LX5

>  <Rbt.Executable>
rbdock ($Id: //depot/dev/client3/rdock/2013.1/src/exe/rbdock.cxx#4 $)

>  <Rbt.Library>
libRbt.so (2013.1, Build901 2013/11/27)

>  <Rbt.Parameter_File>
/export/apps/rDock/src/rDock_2013.1_src/data/scripts/dock_solv.prm

>  <Rbt.Receptor>
prm/pocket_docking_5.prm

>  <SCORE>
-15.0471

>  <SCORE.INTER>
-15.0471

>  <SCORE.INTER.CONST>
1

>  <SCORE.INTER.POLAR>
0

>  <SCORE.INTER.ROT>
0

>  <SCORE.INTER.SOLV>
15.5012

>  <SCORE.INTER.VDW>
-18.7984

>  <SCORE.INTER.norm>
-1.25392

>  <SCORE.INTRA>
0

>  <SCORE.INTRA.DIHEDRAL>
0

>  <SCORE.INTRA.DIHEDRAL.0>
0

>  <SCORE.INTRA.POLAR>
0

>  <SCORE.INTRA.POLAR.0>
0

>  <SCORE.INTRA.REPUL>
0

>  <SCORE.INTRA.REPUL.0>
0

>  <SCORE.INTRA.SOLV>
0

>  <SCORE.INTRA.SOLV.lig_0>
-48.1583

>  <SCORE.INTRA.VDW>
0

>  <SCORE.INTRA.VDW.0>
0

>  <SCORE.INTRA.norm>
0

>  <SCORE.RESTR>
0

>  <SCORE.RESTR.CAVITY>
0

>  <SCORE.RESTR.norm>
0

>  <SCORE.SYSTEM>
0

>  <SCORE.SYSTEM.CONST>
0

>  <SCORE.SYSTEM.DIHEDRAL>
0

>  <SCORE.SYSTEM.SOLV>
0

>  <SCORE.SYSTEM.norm>
0

>  <SCORE.heavy>
12

>  <SCORE.norm>
-1.25392

>  <RMSD>
3.067

$$$$
ligand
 OpenBabel11021811503D
libRbt.so/2013.1/901 2013/11/27
 12 13  0  0  0  0  0  0  0  0999 V2000
    4.6488   15.4172    4.0227 C   0  0  0  0  0  0  0  0  0  0  0  0
    5.9710   17.0114    2.9525 C   0  0  0  0  0  0  0  0  0  0  0  0
    3.9723   14.2735    3.9661 N   0  0  0  0  0  0  0  0  0  0  0  0
    6.5856   17.5092    1.8739 N   0  0  0  0  0  0  0  0  0  0  0  0
    5.2636   15.8745    2.9100 N   0  0  0  0  0  0  0  0  0  0  0  0
    4.7332   16.0872    5.1935 N   0  0  0  0  0  0  0  0  0  0  0  0
    6.8621   19.6279    5.4075 N   0  0  0  0  0  0  0  0  0  0  0  0
    6.2149   19.1192    6.5441 C   0  0  0  0  0  0  0  0  0  0  0  0
    5.4813   17.9128    6.4595 N   0  0  0  0  0  0  0  0  0  0  0  0
    5.4285   17.2483    5.2849 C   0  0  0  0  0  0  0  0  0  0  0  0
    6.0774   17.7360    4.1460 C   0  0  0  0  0  0  0  0  0  0  0  0
    6.8005   18.9267    4.1870 C   0  0  0  0  0  0  0  0  0  0  0  0
  1  3  1  0  0  0  0
  1  5  1  0  0  0  0
  1  6  2  0  0  0  0
  2  5  2  0  0  0  0
  2 11  1  0  0  0  0
  2  4  1  0  0  0  0
  6 10  1  0  0  0  0
  7  8  2  0  0  0  0
  7 12  1  0  0  0  0
  8  9  1  0  0  0  0
  9 10  2  0  0  0  0
 10 11  1  0  0  0  0
 11 12  2  0  0  0  0
M  END
>  <CHROM.1>
5.65559604,17.20197671,4.40381805,2.29438644,-0.96825096,-2.01416992

>  <Name>
ligand

>  <RI>
0

>  <Rbt.Current_Directory>
/home/itssahil/PROJECTS/Mol_Feturizer/New_Systems/rnas/4LX5

>  <Rbt.Executable>
rbdock ($Id: //depot/dev/client3/rdock/2013.1/src/exe/rbdock.cxx#4 $)

>  <Rbt.Library>
libRbt.so (2013.1, Build901 2013/11/27)

>  <Rbt.Parameter_File>
/export/apps/rDock/src/rDock_2013.1_src/data/scripts/dock_solv.prm

>  <Rbt.Receptor>
prm/pocket_docking_5.prm

>  <SCORE>
-15.0395

>  <SCORE.INTER>
-15.0395

>  <SCORE.INTER.CONST>
1

>  <SCORE.INTER.POLAR>
0

>  <SCORE.INTER.ROT>
0

>  <SCORE.INTER.SOLV>
15.4241

>  <SCORE.INTER.VDW>
-18.7677

>  <SCORE.INTER.norm>
-1.25329

>  <SCORE.INTRA>
0

>  <SCORE.INTRA.DIHEDRAL>
0

>  <SCORE.INTRA.DIHEDRAL.0>
0

>  <SCORE.INTRA.POLAR>
0

>  <SCORE.INTRA.POLAR.0>
0

>  <SCORE.INTRA.REPUL>
0

>  <SCORE.INTRA.REPUL.0>
0

>  <SCORE.INTRA.SOLV>
0

>  <SCORE.INTRA.SOLV.lig_0>
-48.1583

>  <SCORE.INTRA.VDW>
0

>  <SCORE.INTRA.VDW.0>
0

>  <SCORE.INTRA.norm>
0

>  <SCORE.RESTR>
0

>  <SCORE.RESTR.CAVITY>
0

>  <SCORE.RESTR.norm>
0

>  <SCORE.SYSTEM>
0

>  <SCORE.SYSTEM.CONST>
0

>  <SCORE.SYSTEM.DIHEDRAL>
0

>  <SCORE.SYSTEM.SOLV>
0

>  <SCORE.SYSTEM.norm>
0

>  <SCORE.heavy>
12

>  <SCORE.norm>
-1.25329

>  <RMSD>
3.067

$$$$
ligand
 OpenBabel11021811503D
libRbt.so/2013.1/901 2013/11/27
 12 13  0  0  0  0  0  0  0  0999 V2000
    4.7073   15.4379    4.0356 C   0  0  0  0  0  0  0  0  0  0  0  0
    6.0372   17.0417    2.9896 C   0  0  0  0  0  0  0  0  0  0  0  0
    4.0310   14.2950    3.9635 N   0  0  0  0  0  0  0  0  0  0  0  0
    6.6593   17.5494    1.9199 N   0  0  0  0  0  0  0  0  0  0  0  0
    5.3298   15.9055    2.9315 N   0  0  0  0  0  0  0  0  0  0  0  0
    4.7839   16.0967    5.2132 N   0  0  0  0  0  0  0  0  0  0  0  0
    6.9121   19.6347    5.4752 N   0  0  0  0  0  0  0  0  0  0  0  0
    6.2570   19.1154    6.6025 C   0  0  0  0  0  0  0  0  0  0  0  0
    5.5237   17.9101    6.5015 N   0  0  0  0  0  0  0  0  0  0  0  0
    5.4788   17.2567    5.3203 C   0  0  0  0  0  0  0  0  0  0  0  0
    6.1356   17.7550    4.1906 C   0  0  0  0  0  0  0  0  0  0  0  0
    6.8586   18.9450    4.2477 C   0  0  0  0  0  0  0  0  0  0  0  0
  1  3  1  0  0  0  0
  1  5  1  0  0  0  0
  1  6  2  0  0  0  0
  2  5  2  0  0  0  0
  2 11  1  0  0  0  0
  2  4  1  0  0  0  0
  6 10  1  0  0  0  0
  7  8  2  0  0  0  0
  7 12  1  0  0  0  0
  8  9  1  0  0  0  0
  9 10  2  0  0  0  0
 10 11  1  0  0  0  0
 11 12  2  0  0  0  0
M  END
>  <CHROM.1>
5.71191882,17.21865782,4.44042433,2.28370187,-0.96508957,-2.01352005

>  <Name>
ligand

>  <RI>
0

>  <Rbt.Current_Directory>
/home/itssahil/PROJECTS/Mol_Feturizer/New_Systems/rnas/4LX5

>  <Rbt.Executable>
rbdock ($Id: //depot/dev/client3/rdock/2013.1/src/exe/rbdock.cxx#4 $)

>  <Rbt.Library>
libRbt.so (2013.1, Build901 2013/11/27)

>  <Rbt.Parameter_File>
/export/apps/rDock/src/rDock_2013.1_src/data/scripts/dock_solv.prm

>  <Rbt.Receptor>
prm/pocket_docking_6.prm

>  <SCORE>
-14.9849

>  <SCORE.INTER>
-14.9849

>  <SCORE.INTER.CONST>
1

>  <SCORE.INTER.POLAR>
0

>  <SCORE.INTER.ROT>
0

>  <SCORE.INTER.SOLV>
15.7518

>  <SCORE.INTER.VDW>
-18.8405

>  <SCORE.INTER.norm>
-1.24874

>  <SCORE.INTRA>
0

>  <SCORE.INTRA.DIHEDRAL>
0

>  <SCORE.INTRA.DIHEDRAL.0>
0

>  <SCORE.INTRA.POLAR>
0

>  <SCORE.INTRA.POLAR.0>
0

>  <SCORE.INTRA.REPUL>
0

>  <SCORE.INTRA.REPUL.0>
0

>  <SCORE.INTRA.SOLV>
0

>  <SCORE.INTRA.SOLV.lig_0>
-48.1583

>  <SCORE.INTRA.VDW>
0

>  <SCORE.INTRA.VDW.0>
0

>  <SCORE.INTRA.norm>
0

>  <SCORE.RESTR>
0

>  <SCORE.RESTR.CAVITY>
0

>  <SCORE.RESTR.norm>
0

>  <SCORE.SYSTEM>
0

>  <SCORE.SYSTEM.CONST>
0

>  <SCORE.SYSTEM.DIHEDRAL>
0

>  <SCORE.SYSTEM.SOLV>
0

>  <SCORE.SYSTEM.norm>
0

>  <SCORE.heavy>
12

>  <SCORE.norm>
-1.24874

>  <RMSD>
3.067

$$$$
ligand
 OpenBabel11021811503D
libRbt.so/2013.1/901 2013/11/27
 12 13  0  0  0  0  0  0  0  0999 V2000
    4.6402   15.4320    4.0198 C   0  0  0  0  0  0  0  0  0  0  0  0
    5.9640   17.0246    2.9493 C   0  0  0  0  0  0  0  0  0  0  0  0
    3.9582   14.2916    3.9620 N   0  0  0  0  0  0  0  0  0  0  0  0
    6.5751   17.5241    1.8695 N   0  0  0  0  0  0  0  0  0  0  0  0
    5.2511   15.8912    2.9058 N   0  0  0  0  0  0  0  0  0  0  0  0
    4.7340   16.0965    5.1930 N   0  0  0  0  0  0  0  0  0  0  0  0
    6.8802   19.6266    5.4105 N   0  0  0  0  0  0  0  0  0  0  0  0
    6.2368   19.1160    6.5484 C   0  0  0  0  0  0  0  0  0  0  0  0
    5.4972   17.9133    6.4626 N   0  0  0  0  0  0  0  0  0  0  0  0
    5.4350   17.2541    5.2856 C   0  0  0  0  0  0  0  0  0  0  0  0
    6.0801   17.7436    4.1453 C   0  0  0  0  0  0  0  0  0  0  0  0
    6.8088   18.9308    4.1874 C   0  0  0  0  0  0  0  0  0  0  0  0
  1  3  1  0  0  0  0
  1  5  1  0  0  0  0
  1  6  2  0  0  0  0
  2  5  2  0  0  0  0
  2 11  1  0  0  0  0
  2  4  1  0  0  0  0
  6 10  1  0  0  0  0
  7  8  2  0  0  0  0
  7 12  1  0  0  0  0
  8  9  1  0  0  0  0
  9 10  2  0  0  0  0
 10 11  1  0  0  0  0
 11 12  2  0  0  0  0
M  END
>  <CHROM.1>
5.65722279,17.21045853,4.40307252,2.30637271,-0.96635721,-2.00006405

>  <Name>
ligand

>  <RI>
0

>  <Rbt.Current_Directory>
/home/itssahil/PROJECTS/Mol_Feturizer/New_Systems/rnas/4LX5

>  <Rbt.Executable>
rbdock ($Id: //depot/dev/client3/rdock/2013.1/src/exe/rbdock.cxx#4 $)

>  <Rbt.Library>
libRbt.so (2013.1, Build901 2013/11/27)

>  <Rbt.Parameter_File>
/export/apps/rDock/src/rDock_2013.1_src/data/scripts/dock_solv.prm

>  <Rbt.Receptor>
prm/pocket_docking_7.prm

>  <SCORE>
-15.0463

>  <SCORE.INTER>
-15.0463

>  <SCORE.INTER.CONST>
1

>  <SCORE.INTER.POLAR>
0

>  <SCORE.INTER.ROT>
0

>  <SCORE.INTER.SOLV>
15.3334

>  <SCORE.INTER.VDW>
-18.742

>  <SCORE.INTER.norm>
-1.25386

>  <SCORE.INTRA>
0

>  <SCORE.INTRA.DIHEDRAL>
0

>  <SCORE.INTRA.DIHEDRAL.0>
0

>  <SCORE.INTRA.POLAR>
0

>  <SCORE.INTRA.POLAR.0>
0

>  <SCORE.INTRA.REPUL>
0

>  <SCORE.INTRA.REPUL.0>
0

>  <SCORE.INTRA.SOLV>
0

>  <SCORE.INTRA.SOLV.lig_0>
-48.1583

>  <SCORE.INTRA.VDW>
0

>  <SCORE.INTRA.VDW.0>
0

>  <SCORE.INTRA.norm>
0

>  <SCORE.RESTR>
0

>  <SCORE.RESTR.CAVITY>
0

>  <SCORE.RESTR.norm>
0

>  <SCORE.SYSTEM>
0

>  <SCORE.SYSTEM.CONST>
0

>  <SCORE.SYSTEM.DIHEDRAL>
0

>  <SCORE.SYSTEM.SOLV>
0

>  <SCORE.SYSTEM.norm>
0

>  <SCORE.heavy>
12

>  <SCORE.norm>
-1.25386

>  <RMSD>
3.067

$$$$
ligand
 OpenBabel11021811503D
libRbt.so/2013.1/901 2013/11/27
 12 13  0  0  0  0  0  0  0  0999 V2000
    4.6570   15.4058    4.0293 C   0  0  0  0  0  0  0  0  0  0  0  0
    5.9704   17.0026    2.9522 C   0  0  0  0  0  0  0  0  0  0  0  0
    3.9850   14.2593    3.9770 N   0  0  0  0  0  0  0  0  0  0  0  0
    6.5805   17.5003    1.8710 N   0  0  0  0  0  0  0  0  0  0  0  0
    5.2674   15.8629    2.9141 N   0  0  0  0  0  0  0  0  0  0  0  0
    4.7416   16.0789    5.1983 N   0  0  0  0  0  0  0  0  0  0  0  0
    6.8569   19.6285    5.3990 N   0  0  0  0  0  0  0  0  0  0  0  0
    6.2144   19.1199    6.5383 C   0  0  0  0  0  0  0  0  0  0  0  0
    5.4854   17.9104    6.4582 N   0  0  0  0  0  0  0  0  0  0  0  0
    5.4324   17.2429    5.2854 C   0  0  0  0  0  0  0  0  0  0  0  0
    6.0768   17.7305    4.1438 C   0  0  0  0  0  0  0  0  0  0  0  0
    6.7952   18.9242    4.1803 C   0  0  0  0  0  0  0  0  0  0  0  0
  1  3  1  0  0  0  0
  1  5  1  0  0  0  0
  1  6  2  0  0  0  0
  2  5  2  0  0  0  0
  2 11  1  0  0  0  0
  2  4  1  0  0  0  0
  6 10  1  0  0  0  0
  7  8  2  0  0  0  0
  7 12  1  0  0  0  0
  8  9  1  0  0  0  0
  9 10  2  0  0  0  0
 10 11  1  0  0  0  0
 11 12  2  0  0  0  0
M  END
>  <CHROM.1>
5.65766870,17.19543695,4.40384502,2.29514912,-0.97284239,-2.01590220

>  <Name>
ligand

>  <RI>
0

>  <Rbt.Current_Directory>
/home/itssahil/PROJECTS/Mol_Feturizer/New_Systems/rnas/4LX5

>  <Rbt.Executable>
rbdock ($Id: //depot/dev/client3/rdock/2013.1/src/exe/rbdock.cxx#4 $)

>  <Rbt.Library>
libRbt.so (2013.1, Build901 2013/11/27)

>  <Rbt.Parameter_File>
/export/apps/rDock/src/rDock_2013.1_src/data/scripts/dock_solv.prm

>  <Rbt.Receptor>
prm/blind_docking_60.prm

>  <SCORE>
-15.0724

>  <SCORE.INTER>
-15.0724

>  <SCORE.INTER.CONST>
1

>  <SCORE.INTER.POLAR>
0

>  <SCORE.INTER.ROT>
0

>  <SCORE.INTER.SOLV>
15.4938

>  <SCORE.INTER.VDW>
-18.8129

>  <SCORE.INTER.norm>
-1.25604

>  <SCORE.INTRA>
0

>  <SCORE.INTRA.DIHEDRAL>
0

>  <SCORE.INTRA.DIHEDRAL.0>
0

>  <SCORE.INTRA.POLAR>
0

>  <SCORE.INTRA.POLAR.0>
0

>  <SCORE.INTRA.REPUL>
0

>  <SCORE.INTRA.REPUL.0>
0

>  <SCORE.INTRA.SOLV>
0

>  <SCORE.INTRA.SOLV.lig_0>
-48.1583

>  <SCORE.INTRA.VDW>
0

>  <SCORE.INTRA.VDW.0>
0

>  <SCORE.INTRA.norm>
0

>  <SCORE.RESTR>
0

>  <SCORE.RESTR.CAVITY>
0

>  <SCORE.RESTR.norm>
0

>  <SCORE.SYSTEM>
0

>  <SCORE.SYSTEM.CONST>
0

>  <SCORE.SYSTEM.DIHEDRAL>
0

>  <SCORE.SYSTEM.SOLV>
0

>  <SCORE.SYSTEM.norm>
0

>  <SCORE.heavy>
12

>  <SCORE.norm>
-1.25604

>  <RMSD>
3.068

$$$$
ligand
 OpenBabel11021811503D
libRbt.so/2013.1/901 2013/11/27
 12 13  0  0  0  0  0  0  0  0999 V2000
    4.6624   15.4011    4.0276 C   0  0  0  0  0  0  0  0  0  0  0  0
    5.9765   17.0002    2.9548 C   0  0  0  0  0  0  0  0  0  0  0  0
    3.9939   14.2527    3.9735 N   0  0  0  0  0  0  0  0  0  0  0  0
    6.5905   17.4982    1.8759 N   0  0  0  0  0  0  0  0  0  0  0  0
    5.2769   15.8585    2.9148 N   0  0  0  0  0  0  0  0  0  0  0  0
    4.7394   16.0760    5.1961 N   0  0  0  0  0  0  0  0  0  0  0  0
    6.8437   19.6319    5.4023 N   0  0  0  0  0  0  0  0  0  0  0  0
    6.1971   19.1229    6.5392 C   0  0  0  0  0  0  0  0  0  0  0  0
    5.4719   17.9113    6.4572 N   0  0  0  0  0  0  0  0  0  0  0  0
    5.4265   17.2421    5.2850 C   0  0  0  0  0  0  0  0  0  0  0  0
    6.0750   17.7300    4.1459 C   0  0  0  0  0  0  0  0  0  0  0  0
    6.7899   18.9257    4.1843 C   0  0  0  0  0  0  0  0  0  0  0  0
  1  3  1  0  0  0  0
  1  5  1  0  0  0  0
  1  6  2  0  0  0  0
  2  5  2  0  0  0  0
  2 11  1  0  0  0  0
  2  4  1  0  0  0  0
  6 10  1  0  0  0  0
  7  8  2  0  0  0  0
  7 12  1  0  0  0  0
  8  9  1  0  0  0  0
  9 10  2  0  0  0  0
 10 11  1  0  0  0  0
 11 12  2  0  0  0  0
M  END
>  <CHROM.1>
5.65616262,17.19406578,4.40461418,2.28517794,-0.97326827,-2.02547073

>  <Name>
ligand

>  <RI>
0

>  <Rbt.Current_Directory>
/home/itssahil/PROJECTS/Mol_Feturizer/New_Systems/rnas/4LX5

>  <Rbt.Executable>
rbdock ($Id: //depot/dev/client3/rdock/2013.1/src/exe/rbdock.cxx#4 $)

>  <Rbt.Library>
libRbt.so (2013.1, Build901 2013/11/27)

>  <Rbt.Parameter_File>
/export/apps/rDock/src/rDock_2013.1_src/data/scripts/dock_solv.prm

>  <Rbt.Receptor>
prm/pocket_docking_5.prm

>  <SCORE>
-15.0631

>  <SCORE.INTER>
-15.0631

>  <SCORE.INTER.CONST>
1

>  <SCORE.INTER.POLAR>
0

>  <SCORE.INTER.ROT>
0

>  <SCORE.INTER.SOLV>
15.5475

>  <SCORE.INTER.VDW>
-18.8246

>  <SCORE.INTER.norm>
-1.25526

>  <SCORE.INTRA>
0

>  <SCORE.INTRA.DIHEDRAL>
0

>  <SCORE.INTRA.DIHEDRAL.0>
0

>  <SCORE.INTRA.POLAR>
0

>  <SCORE.INTRA.POLAR.0>
0

>  <SCORE.INTRA.REPUL>
0

>  <SCORE.INTRA.REPUL.0>
0

>  <SCORE.INTRA.SOLV>
0

>  <SCORE.INTRA.SOLV.lig_0>
-48.1583

>  <SCORE.INTRA.VDW>
0

>  <SCORE.INTRA.VDW.0>
0

>  <SCORE.INTRA.norm>
0

>  <SCORE.RESTR>
0

>  <SCORE.RESTR.CAVITY>
0

>  <SCORE.RESTR.norm>
0

>  <SCORE.SYSTEM>
0

>  <SCORE.SYSTEM.CONST>
0

>  <SCORE.SYSTEM.DIHEDRAL>
0

>  <SCORE.SYSTEM.SOLV>
0

>  <SCORE.SYSTEM.norm>
0

>  <SCORE.heavy>
12

>  <SCORE.norm>
-1.25526

>  <RMSD>
3.068

$$$$
ligand
 OpenBabel11021811503D
libRbt.so/2013.1/901 2013/11/27
 12 13  0  0  0  0  0  0  0  0999 V2000
    4.6537   15.3999    4.0288 C   0  0  0  0  0  0  0  0  0  0  0  0
    5.9680   16.9932    2.9477 C   0  0  0  0  0  0  0  0  0  0  0  0
    3.9816   14.2532    3.9795 N   0  0  0  0  0  0  0  0  0  0  0  0
    6.5790   17.4875    1.8654 N   0  0  0  0  0  0  0  0  0  0  0  0
    5.2650   15.8534    2.9126 N   0  0  0  0  0  0  0  0  0  0  0  0
    4.7373   16.0766    5.1957 N   0  0  0  0  0  0  0  0  0  0  0  0
    6.8525   19.6268    5.3869 N   0  0  0  0  0  0  0  0  0  0  0  0
    6.2091   19.1218    6.5272 C   0  0  0  0  0  0  0  0  0  0  0  0
    5.4801   17.9121    6.4504 N   0  0  0  0  0  0  0  0  0  0  0  0
    5.4281   17.2409    5.2796 C   0  0  0  0  0  0  0  0  0  0  0  0
    6.0734   17.7249    4.1370 C   0  0  0  0  0  0  0  0  0  0  0  0
    6.7918   18.9186    4.1703 C   0  0  0  0  0  0  0  0  0  0  0  0
  1  3  1  0  0  0  0
  1  5  1  0  0  0  0
  1  6  2  0  0  0  0
  2  5  2  0  0  0  0
  2 11  1  0  0  0  0
  2  4  1  0  0  0  0
  6 10  1  0  0  0  0
  7  8  2  0  0  0  0
  7 12  1  0  0  0  0
  8  9  1  0  0  0  0
  9 10  2  0  0  0  0
 10 11  1  0  0  0  0
 11 12  2  0  0  0  0
M  END
>  <CHROM.1>
5.65404252,17.19062271,4.39844952,2.29384378,-0.97246358,-2.02014411

>  <Name>
ligand

>  <RI>
0

>  <Rbt.Current_Directory>
/home/itssahil/PROJECTS/Mol_Feturizer/New_Systems/rnas/4LX5

>  <Rbt.Executable>
rbdock ($Id: //depot/dev/client3/rdock/2013.1/src/exe/rbdock.cxx#4 $)

>  <Rbt.Library>
libRbt.so (2013.1, Build901 2013/11/27)

>  <Rbt.Parameter_File>
/export/apps/rDock/src/rDock_2013.1_src/data/scripts/dock_solv.prm

>  <Rbt.Receptor>
prm/pocket_docking_7.prm

>  <SCORE>
-15.0676

>  <SCORE.INTER>
-15.0676

>  <SCORE.INTER.CONST>
1

>  <SCORE.INTER.POLAR>
0

>  <SCORE.INTER.ROT>
0

>  <SCORE.INTER.SOLV>
15.4852

>  <SCORE.INTER.VDW>
-18.8068

>  <SCORE.INTER.norm>
-1.25563

>  <SCORE.INTRA>
0

>  <SCORE.INTRA.DIHEDRAL>
0

>  <SCORE.INTRA.DIHEDRAL.0>
0

>  <SCORE.INTRA.POLAR>
0

>  <SCORE.INTRA.POLAR.0>
0

>  <SCORE.INTRA.REPUL>
0

>  <SCORE.INTRA.REPUL.0>
0

>  <SCORE.INTRA.SOLV>
0

>  <SCORE.INTRA.SOLV.lig_0>
-48.1583

>  <SCORE.INTRA.VDW>
0

>  <SCORE.INTRA.VDW.0>
0

>  <SCORE.INTRA.norm>
0

>  <SCORE.RESTR>
0

>  <SCORE.RESTR.CAVITY>
0

>  <SCORE.RESTR.norm>
0

>  <SCORE.SYSTEM>
0

>  <SCORE.SYSTEM.CONST>
0

>  <SCORE.SYSTEM.DIHEDRAL>
0

>  <SCORE.SYSTEM.SOLV>
0

>  <SCORE.SYSTEM.norm>
0

>  <SCORE.heavy>
12

>  <SCORE.norm>
-1.25563

>  <RMSD>
3.068

$$$$
ligand
 OpenBabel11021811503D
libRbt.so/2013.1/901 2013/11/27
 12 13  0  0  0  0  0  0  0  0999 V2000
    4.6517   15.4153    4.0335 C   0  0  0  0  0  0  0  0  0  0  0  0
    5.9632   17.0113    2.9529 C   0  0  0  0  0  0  0  0  0  0  0  0
    3.9757   14.2711    3.9819 N   0  0  0  0  0  0  0  0  0  0  0  0
    6.5680   17.5104    1.8693 N   0  0  0  0  0  0  0  0  0  0  0  0
    5.2564   15.8739    2.9158 N   0  0  0  0  0  0  0  0  0  0  0  0
    4.7458   16.0845    5.2040 N   0  0  0  0  0  0  0  0  0  0  0  0
    6.8735   19.6269    5.4019 N   0  0  0  0  0  0  0  0  0  0  0  0
    6.2367   19.1168    6.5438 C   0  0  0  0  0  0  0  0  0  0  0  0
    5.5034   17.9098    6.4647 N   0  0  0  0  0  0  0  0  0  0  0  0
    5.4408   17.2461    5.2902 C   0  0  0  0  0  0  0  0  0  0  0  0
    6.0794   17.7352    4.1460 C   0  0  0  0  0  0  0  0  0  0  0  0
    6.8018   18.9265    4.1815 C   0  0  0  0  0  0  0  0  0  0  0  0
  1  3  1  0  0  0  0
  1  5  1  0  0  0  0
  1  6  2  0  0  0  0
  2  5  2  0  0  0  0
  2 11  1  0  0  0  0
  2  4  1  0  0  0  0
  6 10  1  0  0  0  0
  7  8  2  0  0  0  0
  7 12  1  0  0  0  0
  8  9  1  0  0  0  0
  9 10  2  0  0  0  0
 10 11  1  0  0  0  0
 11 12  2  0  0  0  0
M  END
>  <CHROM.1>
5.66030727,17.20061920,4.40707605,2.30775421,-0.97269124,-2.00242445

>  <Name>
ligand

>  <RI>
0

>  <Rbt.Current_Directory>
/home/itssahil/PROJECTS/Mol_Feturizer/New_Systems/rnas/4LX5

>  <Rbt.Executable>
rbdock ($Id: //depot/dev/client3/rdock/2013.1/src/exe/rbdock.cxx#4 $)

>  <Rbt.Library>
libRbt.so (2013.1, Build901 2013/11/27)

>  <Rbt.Parameter_File>
/export/apps/rDock/src/rDock_2013.1_src/data/scripts/dock_solv.prm

>  <Rbt.Receptor>
prm/blind_docking_40.prm

>  <SCORE>
-15.0752

>  <SCORE.INTER>
-15.0752

>  <SCORE.INTER.CONST>
1

>  <SCORE.INTER.POLAR>
0

>  <SCORE.INTER.ROT>
0

>  <SCORE.INTER.SOLV>
15.4304

>  <SCORE.INTER.VDW>
-18.7936

>  <SCORE.INTER.norm>
-1.25627

>  <SCORE.INTRA>
0

>  <SCORE.INTRA.DIHEDRAL>
0

>  <SCORE.INTRA.DIHEDRAL.0>
0

>  <SCORE.INTRA.POLAR>
0

>  <SCORE.INTRA.POLAR.0>
0

>  <SCORE.INTRA.REPUL>
0

>  <SCORE.INTRA.REPUL.0>
0

>  <SCORE.INTRA.SOLV>
0

>  <SCORE.INTRA.SOLV.lig_0>
-48.1583

>  <SCORE.INTRA.VDW>
0

>  <SCORE.INTRA.VDW.0>
0

>  <SCORE.INTRA.norm>
0

>  <SCORE.RESTR>
0

>  <SCORE.RESTR.CAVITY>
0

>  <SCORE.RESTR.norm>
0

>  <SCORE.SYSTEM>
0

>  <SCORE.SYSTEM.CONST>
0

>  <SCORE.SYSTEM.DIHEDRAL>
0

>  <SCORE.SYSTEM.SOLV>
0

>  <SCORE.SYSTEM.norm>
0

>  <SCORE.heavy>
12

>  <SCORE.norm>
-1.25627

>  <RMSD>
3.069

$$$$
ligand
 OpenBabel11021811503D
libRbt.so/2013.1/901 2013/11/27
 12 13  0  0  0  0  0  0  0  0999 V2000
    4.6610   15.4168    4.0336 C   0  0  0  0  0  0  0  0  0  0  0  0
    5.9774   17.0146    2.9616 C   0  0  0  0  0  0  0  0  0  0  0  0
    3.9865   14.2719    3.9775 N   0  0  0  0  0  0  0  0  0  0  0  0
    6.5882   17.5147    1.8819 N   0  0  0  0  0  0  0  0  0  0  0  0
    5.2720   15.8765    2.9198 N   0  0  0  0  0  0  0  0  0  0  0  0
    4.7472   16.0857    5.2049 N   0  0  0  0  0  0  0  0  0  0  0  0
    6.8699   19.6303    5.4171 N   0  0  0  0  0  0  0  0  0  0  0  0
    6.2267   19.1191    6.5548 C   0  0  0  0  0  0  0  0  0  0  0  0
    5.4952   17.9114    6.4708 N   0  0  0  0  0  0  0  0  0  0  0  0
    5.4405   17.2480    5.2957 C   0  0  0  0  0  0  0  0  0  0  0  0
    6.0855   17.7382    4.1556 C   0  0  0  0  0  0  0  0  0  0  0  0
    6.8064   18.9302    4.1960 C   0  0  0  0  0  0  0  0  0  0  0  0
  1  3  1  0  0  0  0
  1  5  1  0  0  0  0
  1  6  2  0  0  0  0
  2  5  2  0  0  0  0
  2 11  1  0  0  0  0
  2  4  1  0  0  0  0
  6 10  1  0  0  0  0
  7  8  2  0  0  0  0
  7 12  1  0  0  0  0
  8  9  1  0  0  0  0
  9 10  2  0  0  0  0
 10 11  1  0  0  0  0
 11 12  2  0  0  0  0
M  END
>  <CHROM.1>
5.66540379,17.20306806,4.41397381,2.29713481,-0.97107800,-2.01084883

>  <Name>
ligand

>  <RI>
0

>  <Rbt.Current_Directory>
/home/itssahil/PROJECTS/Mol_Feturizer/New_Systems/rnas/4LX5

>  <Rbt.Executable>
rbdock ($Id: //depot/dev/client3/rdock/2013.1/src/exe/rbdock.cxx#4 $)

>  <Rbt.Library>
libRbt.so (2013.1, Build901 2013/11/27)

>  <Rbt.Parameter_File>
/export/apps/rDock/src/rDock_2013.1_src/data/scripts/dock_solv.prm

>  <Rbt.Receptor>
prm/pocket_docking_3.prm

>  <SCORE>
-15.069

>  <SCORE.INTER>
-15.069

>  <SCORE.INTER.CONST>
1

>  <SCORE.INTER.POLAR>
0

>  <SCORE.INTER.ROT>
0

>  <SCORE.INTER.SOLV>
15.4959

>  <SCORE.INTER.VDW>
-18.8113

>  <SCORE.INTER.norm>
-1.25575

>  <SCORE.INTRA>
0

>  <SCORE.INTRA.DIHEDRAL>
0

>  <SCORE.INTRA.DIHEDRAL.0>
0

>  <SCORE.INTRA.POLAR>
0

>  <SCORE.INTRA.POLAR.0>
0

>  <SCORE.INTRA.REPUL>
0

>  <SCORE.INTRA.REPUL.0>
0

>  <SCORE.INTRA.SOLV>
0

>  <SCORE.INTRA.SOLV.lig_0>
-48.1583

>  <SCORE.INTRA.VDW>
0

>  <SCORE.INTRA.VDW.0>
0

>  <SCORE.INTRA.norm>
0

>  <SCORE.RESTR>
0

>  <SCORE.RESTR.CAVITY>
0

>  <SCORE.RESTR.norm>
0

>  <SCORE.SYSTEM>
0

>  <SCORE.SYSTEM.CONST>
0

>  <SCORE.SYSTEM.DIHEDRAL>
0

>  <SCORE.SYSTEM.SOLV>
0

>  <SCORE.SYSTEM.norm>
0

>  <SCORE.heavy>
12

>  <SCORE.norm>
-1.25575

>  <RMSD>
3.069

$$$$
ligand
 OpenBabel11021811503D
libRbt.so/2013.1/901 2013/11/27
 12 13  0  0  0  0  0  0  0  0999 V2000
    4.6576   15.4093    4.0303 C   0  0  0  0  0  0  0  0  0  0  0  0
    5.9727   17.0059    2.9550 C   0  0  0  0  0  0  0  0  0  0  0  0
    3.9843   14.2636    3.9767 N   0  0  0  0  0  0  0  0  0  0  0  0
    6.5832   17.5042    1.8742 N   0  0  0  0  0  0  0  0  0  0  0  0
    5.2684   15.8670    2.9156 N   0  0  0  0  0  0  0  0  0  0  0  0
    4.7431   16.0809    5.2001 N   0  0  0  0  0  0  0  0  0  0  0  0
    6.8622   19.6280    5.4046 N   0  0  0  0  0  0  0  0  0  0  0  0
    6.2193   19.1187    6.5434 C   0  0  0  0  0  0  0  0  0  0  0  0
    5.4890   17.9102    6.4620 N   0  0  0  0  0  0  0  0  0  0  0  0
    5.4352   17.2441    5.2884 C   0  0  0  0  0  0  0  0  0  0  0  0
    6.0799   17.7323    4.1473 C   0  0  0  0  0  0  0  0  0  0  0  0
    6.7996   18.9251    4.1851 C   0  0  0  0  0  0  0  0  0  0  0  0
  1  3  1  0  0  0  0
  1  5  1  0  0  0  0
  1  6  2  0  0  0  0
  2  5  2  0  0  0  0
  2 11  1  0  0  0  0
  2  4  1  0  0  0  0
  6 10  1  0  0  0  0
  7  8  2  0  0  0  0
  7 12  1  0  0  0  0
  8  9  1  0  0  0  0
  9 10  2  0  0  0  0
 10 11  1  0  0  0  0
 11 12  2  0  0  0  0
M  END
>  <CHROM.1>
5.66025482,17.19735976,4.40681745,2.29614558,-0.97190737,-2.01392073

>  <Name>
ligand

>  <RI>
0

>  <Rbt.Current_Directory>
/home/itssahil/PROJECTS/Mol_Feturizer/New_Systems/rnas/4LX5

>  <Rbt.Executable>
rbdock ($Id: //depot/dev/client3/rdock/2013.1/src/exe/rbdock.cxx#4 $)

>  <Rbt.Library>
libRbt.so (2013.1, Build901 2013/11/27)

>  <Rbt.Parameter_File>
/export/apps/rDock/src/rDock_2013.1_src/data/scripts/dock_solv.prm

>  <Rbt.Receptor>
prm/pocket_docking_3.prm

>  <SCORE>
-15.0729

>  <SCORE.INTER>
-15.0729

>  <SCORE.INTER.CONST>
1

>  <SCORE.INTER.POLAR>
0

>  <SCORE.INTER.ROT>
0

>  <SCORE.INTER.SOLV>
15.4889

>  <SCORE.INTER.VDW>
-18.8115

>  <SCORE.INTER.norm>
-1.25607

>  <SCORE.INTRA>
0

>  <SCORE.INTRA.DIHEDRAL>
0

>  <SCORE.INTRA.DIHEDRAL.0>
0

>  <SCORE.INTRA.POLAR>
0

>  <SCORE.INTRA.POLAR.0>
0

>  <SCORE.INTRA.REPUL>
0

>  <SCORE.INTRA.REPUL.0>
0

>  <SCORE.INTRA.SOLV>
0

>  <SCORE.INTRA.SOLV.lig_0>
-48.1583

>  <SCORE.INTRA.VDW>
0

>  <SCORE.INTRA.VDW.0>
0

>  <SCORE.INTRA.norm>
0

>  <SCORE.RESTR>
0

>  <SCORE.RESTR.CAVITY>
0

>  <SCORE.RESTR.norm>
0

>  <SCORE.SYSTEM>
0

>  <SCORE.SYSTEM.CONST>
0

>  <SCORE.SYSTEM.DIHEDRAL>
0

>  <SCORE.SYSTEM.SOLV>
0

>  <SCORE.SYSTEM.norm>
0

>  <SCORE.heavy>
12

>  <SCORE.norm>
-1.25607

>  <RMSD>
3.069

$$$$
ligand
 OpenBabel11021811503D
libRbt.so/2013.1/901 2013/11/27
 12 13  0  0  0  0  0  0  0  0999 V2000
    4.6547   15.4131    4.0317 C   0  0  0  0  0  0  0  0  0  0  0  0
    5.9712   17.0074    2.9547 C   0  0  0  0  0  0  0  0  0  0  0  0
    3.9787   14.2690    3.9787 N   0  0  0  0  0  0  0  0  0  0  0  0
    6.5808   17.5049    1.8730 N   0  0  0  0  0  0  0  0  0  0  0  0
    5.2643   15.8701    2.9160 N   0  0  0  0  0  0  0  0  0  0  0  0
    4.7438   16.0839    5.2017 N   0  0  0  0  0  0  0  0  0  0  0  0
    6.8714   19.6261    5.4041 N   0  0  0  0  0  0  0  0  0  0  0  0
    6.2295   19.1177    6.5438 C   0  0  0  0  0  0  0  0  0  0  0  0
    5.4963   17.9108    6.4632 N   0  0  0  0  0  0  0  0  0  0  0  0
    5.4387   17.2455    5.2893 C   0  0  0  0  0  0  0  0  0  0  0  0
    6.0824   17.7329    4.1473 C   0  0  0  0  0  0  0  0  0  0  0  0
    6.8048   18.9241    4.1843 C   0  0  0  0  0  0  0  0  0  0  0  0
  1  3  1  0  0  0  0
  1  5  1  0  0  0  0
  1  6  2  0  0  0  0
  2  5  2  0  0  0  0
  2 11  1  0  0  0  0
  2  4  1  0  0  0  0
  6 10  1  0  0  0  0
  7  8  2  0  0  0  0
  7 12  1  0  0  0  0
  8  9  1  0  0  0  0
  9 10  2  0  0  0  0
 10 11  1  0  0  0  0
 11 12  2  0  0  0  0
M  END
>  <CHROM.1>
5.66201399,17.19875556,4.40725421,2.30092083,-0.97069695,-2.00941538

>  <Name>
ligand

>  <RI>
0

>  <Rbt.Current_Directory>
/home/itssahil/PROJECTS/Mol_Feturizer/New_Systems/rnas/4LX5

>  <Rbt.Executable>
rbdock ($Id: //depot/dev/client3/rdock/2013.1/src/exe/rbdock.cxx#4 $)

>  <Rbt.Library>
libRbt.so (2013.1, Build901 2013/11/27)

>  <Rbt.Parameter_File>
/export/apps/rDock/src/rDock_2013.1_src/data/scripts/dock_solv.prm

>  <Rbt.Receptor>
prm/pocket_docking_4.prm

>  <SCORE>
-15.0732

>  <SCORE.INTER>
-15.0732

>  <SCORE.INTER.CONST>
1

>  <SCORE.INTER.POLAR>
0

>  <SCORE.INTER.ROT>
0

>  <SCORE.INTER.SOLV>
15.4574

>  <SCORE.INTER.VDW>
-18.8013

>  <SCORE.INTER.norm>
-1.2561

>  <SCORE.INTRA>
0

>  <SCORE.INTRA.DIHEDRAL>
0

>  <SCORE.INTRA.DIHEDRAL.0>
0

>  <SCORE.INTRA.POLAR>
0

>  <SCORE.INTRA.POLAR.0>
0

>  <SCORE.INTRA.REPUL>
0

>  <SCORE.INTRA.REPUL.0>
0

>  <SCORE.INTRA.SOLV>
0

>  <SCORE.INTRA.SOLV.lig_0>
-48.1583

>  <SCORE.INTRA.VDW>
0

>  <SCORE.INTRA.VDW.0>
0

>  <SCORE.INTRA.norm>
0

>  <SCORE.RESTR>
0

>  <SCORE.RESTR.CAVITY>
0

>  <SCORE.RESTR.norm>
0

>  <SCORE.SYSTEM>
0

>  <SCORE.SYSTEM.CONST>
0

>  <SCORE.SYSTEM.DIHEDRAL>
0

>  <SCORE.SYSTEM.SOLV>
0

>  <SCORE.SYSTEM.norm>
0

>  <SCORE.heavy>
12

>  <SCORE.norm>
-1.2561

>  <RMSD>
3.069

$$$$
ligand
 OpenBabel11021811503D
libRbt.so/2013.1/901 2013/11/27
 12 13  0  0  0  0  0  0  0  0999 V2000
    4.6625   15.4072    4.0304 C   0  0  0  0  0  0  0  0  0  0  0  0
    5.9748   17.0091    2.9594 C   0  0  0  0  0  0  0  0  0  0  0  0
    3.9936   14.2591    3.9744 N   0  0  0  0  0  0  0  0  0  0  0  0
    6.5866   17.5099    1.8806 N   0  0  0  0  0  0  0  0  0  0  0  0
    5.2748   15.8676    2.9175 N   0  0  0  0  0  0  0  0  0  0  0  0
    4.7421   16.0787    5.2006 N   0  0  0  0  0  0  0  0  0  0  0  0
    6.8476   19.6336    5.4125 N   0  0  0  0  0  0  0  0  0  0  0  0
    6.2032   19.1216    6.5492 C   0  0  0  0  0  0  0  0  0  0  0  0
    5.4776   17.9103    6.4653 N   0  0  0  0  0  0  0  0  0  0  0  0
    5.4297   17.2445    5.2913 C   0  0  0  0  0  0  0  0  0  0  0  0
    6.0759   17.7354    4.1523 C   0  0  0  0  0  0  0  0  0  0  0  0
    6.7911   18.9309    4.1926 C   0  0  0  0  0  0  0  0  0  0  0  0
  1  3  1  0  0  0  0
  1  5  1  0  0  0  0
  1  6  2  0  0  0  0
  2  5  2  0  0  0  0
  2 11  1  0  0  0  0
  2  4  1  0  0  0  0
  6 10  1  0  0  0  0
  7  8  2  0  0  0  0
  7 12  1  0  0  0  0
  8  9  1  0  0  0  0
  9 10  2  0  0  0  0
 10 11  1  0  0  0  0
 11 12  2  0  0  0  0
M  END
>  <CHROM.1>
5.65747475,17.19886499,4.41037930,2.28867406,-0.97397978,-2.01975616

>  <Name>
ligand

>  <RI>
0

>  <Rbt.Current_Directory>
/home/itssahil/PROJECTS/Mol_Feturizer/New_Systems/rnas/4LX5

>  <Rbt.Executable>
rbdock ($Id: //depot/dev/client3/rdock/2013.1/src/exe/rbdock.cxx#4 $)

>  <Rbt.Library>
libRbt.so (2013.1, Build901 2013/11/27)

>  <Rbt.Parameter_File>
/export/apps/rDock/src/rDock_2013.1_src/data/scripts/dock_solv.prm

>  <Rbt.Receptor>
prm/pocket_docking_5.prm

>  <SCORE>
-15.0662

>  <SCORE.INTER>
-15.0662

>  <SCORE.INTER.CONST>
1

>  <SCORE.INTER.POLAR>
0

>  <SCORE.INTER.ROT>
0

>  <SCORE.INTER.SOLV>
15.5355

>  <SCORE.INTER.VDW>
-18.8226

>  <SCORE.INTER.norm>
-1.25552

>  <SCORE.INTRA>
0

>  <SCORE.INTRA.DIHEDRAL>
0

>  <SCORE.INTRA.DIHEDRAL.0>
0

>  <SCORE.INTRA.POLAR>
0

>  <SCORE.INTRA.POLAR.0>
0

>  <SCORE.INTRA.REPUL>
0

>  <SCORE.INTRA.REPUL.0>
0

>  <SCORE.INTRA.SOLV>
0

>  <SCORE.INTRA.SOLV.lig_0>
-48.1583

>  <SCORE.INTRA.VDW>
0

>  <SCORE.INTRA.VDW.0>
0

>  <SCORE.INTRA.norm>
0

>  <SCORE.RESTR>
0

>  <SCORE.RESTR.CAVITY>
0

>  <SCORE.RESTR.norm>
0

>  <SCORE.SYSTEM>
0

>  <SCORE.SYSTEM.CONST>
0

>  <SCORE.SYSTEM.DIHEDRAL>
0

>  <SCORE.SYSTEM.SOLV>
0

>  <SCORE.SYSTEM.norm>
0

>  <SCORE.heavy>
12

>  <SCORE.norm>
-1.25552

>  <RMSD>
3.069

$$$$
ligand
 OpenBabel11021811503D
libRbt.so/2013.1/901 2013/11/27
 12 13  0  0  0  0  0  0  0  0999 V2000
    4.6506   15.4093    4.0314 C   0  0  0  0  0  0  0  0  0  0  0  0
    5.9677   16.9996    2.9493 C   0  0  0  0  0  0  0  0  0  0  0  0
    3.9734   14.2657    3.9819 N   0  0  0  0  0  0  0  0  0  0  0  0
    6.5767   17.4939    1.8658 N   0  0  0  0  0  0  0  0  0  0  0  0
    5.2596   15.8629    2.9140 N   0  0  0  0  0  0  0  0  0  0  0  0
    4.7416   16.0828    5.1997 N   0  0  0  0  0  0  0  0  0  0  0  0
    6.8728   19.6234    5.3914 N   0  0  0  0  0  0  0  0  0  0  0  0
    6.2315   19.1184    6.5330 C   0  0  0  0  0  0  0  0  0  0  0  0
    5.4971   17.9120    6.4560 N   0  0  0  0  0  0  0  0  0  0  0  0
    5.4377   17.2439    5.2838 C   0  0  0  0  0  0  0  0  0  0  0  0
    6.0807   17.7279    4.1400 C   0  0  0  0  0  0  0  0  0  0  0  0
    6.8044   18.9184    4.1734 C   0  0  0  0  0  0  0  0  0  0  0  0
  1  3  1  0  0  0  0
  1  5  1  0  0  0  0
  1  6  2  0  0  0  0
  2  5  2  0  0  0  0
  2 11  1  0  0  0  0
  2  4  1  0  0  0  0
  6 10  1  0  0  0  0
  7  8  2  0  0  0  0
  7 12  1  0  0  0  0
  8  9  1  0  0  0  0
  9 10  2  0  0  0  0
 10 11  1  0  0  0  0
 11 12  2  0  0  0  0
M  END
>  <CHROM.1>
5.66006712,17.19481106,4.40166366,2.30322445,-0.97020169,-2.00995186

>  <Name>
ligand

>  <RI>
0

>  <Rbt.Current_Directory>
/home/itssahil/PROJECTS/Mol_Feturizer/New_Systems/rnas/4LX5

>  <Rbt.Executable>
rbdock ($Id: //depot/dev/client3/rdock/2013.1/src/exe/rbdock.cxx#4 $)

>  <Rbt.Library>
libRbt.so (2013.1, Build901 2013/11/27)

>  <Rbt.Parameter_File>
/export/apps/rDock/src/rDock_2013.1_src/data/scripts/dock_solv.prm

>  <Rbt.Receptor>
prm/pocket_docking_6.prm

>  <SCORE>
-15.0727

>  <SCORE.INTER>
-15.0727

>  <SCORE.INTER.CONST>
1

>  <SCORE.INTER.POLAR>
0

>  <SCORE.INTER.ROT>
0

>  <SCORE.INTER.SOLV>
15.4356

>  <SCORE.INTER.VDW>
-18.7937

>  <SCORE.INTER.norm>
-1.25606

>  <SCORE.INTRA>
0

>  <SCORE.INTRA.DIHEDRAL>
0

>  <SCORE.INTRA.DIHEDRAL.0>
0

>  <SCORE.INTRA.POLAR>
0

>  <SCORE.INTRA.POLAR.0>
0

>  <SCORE.INTRA.REPUL>
0

>  <SCORE.INTRA.REPUL.0>
0

>  <SCORE.INTRA.SOLV>
0

>  <SCORE.INTRA.SOLV.lig_0>
-48.1583

>  <SCORE.INTRA.VDW>
0

>  <SCORE.INTRA.VDW.0>
0

>  <SCORE.INTRA.norm>
0

>  <SCORE.RESTR>
0

>  <SCORE.RESTR.CAVITY>
0

>  <SCORE.RESTR.norm>
0

>  <SCORE.SYSTEM>
0

>  <SCORE.SYSTEM.CONST>
0

>  <SCORE.SYSTEM.DIHEDRAL>
0

>  <SCORE.SYSTEM.SOLV>
0

>  <SCORE.SYSTEM.norm>
0

>  <SCORE.heavy>
12

>  <SCORE.norm>
-1.25606

>  <RMSD>
3.069

$$$$
ligand
 OpenBabel11021811503D
libRbt.so/2013.1/901 2013/11/27
 12 13  0  0  0  0  0  0  0  0999 V2000
    4.6495   15.4211    4.0346 C   0  0  0  0  0  0  0  0  0  0  0  0
    5.9610   17.0166    2.9533 C   0  0  0  0  0  0  0  0  0  0  0  0
    3.9710   14.2784    3.9829 N   0  0  0  0  0  0  0  0  0  0  0  0
    6.5636   17.5165    1.8689 N   0  0  0  0  0  0  0  0  0  0  0  0
    5.2518   15.8807    2.9161 N   0  0  0  0  0  0  0  0  0  0  0  0
    4.7484   16.0878    5.2061 N   0  0  0  0  0  0  0  0  0  0  0  0
    6.8838   19.6255    5.4047 N   0  0  0  0  0  0  0  0  0  0  0  0
    6.2494   19.1144    6.5474 C   0  0  0  0  0  0  0  0  0  0  0  0
    5.5134   17.9091    6.4682 N   0  0  0  0  0  0  0  0  0  0  0  0
    5.4460   17.2479    5.2925 C   0  0  0  0  0  0  0  0  0  0  0  0
    6.0822   17.7379    4.1474 C   0  0  0  0  0  0  0  0  0  0  0  0
    6.8071   18.9276    4.1832 C   0  0  0  0  0  0  0  0  0  0  0  0
  1  3  1  0  0  0  0
  1  5  1  0  0  0  0
  1  6  2  0  0  0  0
  2  5  2  0  0  0  0
  2 11  1  0  0  0  0
  2  4  1  0  0  0  0
  6 10  1  0  0  0  0
  7  8  2  0  0  0  0
  7 12  1  0  0  0  0
  8  9  1  0  0  0  0
  9 10  2  0  0  0  0
 10 11  1  0  0  0  0
 11 12  2  0  0  0  0
M  END
>  <CHROM.1>
5.66280050,17.20364944,4.40873497,2.31403777,-0.97209587,-1.99527997

>  <Name>
ligand

>  <RI>
0

>  <Rbt.Current_Directory>
/home/itssahil/PROJECTS/Mol_Feturizer/New_Systems/rnas/4LX5

>  <Rbt.Executable>
rbdock ($Id: //depot/dev/client3/rdock/2013.1/src/exe/rbdock.cxx#4 $)

>  <Rbt.Library>
libRbt.so (2013.1, Build901 2013/11/27)

>  <Rbt.Parameter_File>
/export/apps/rDock/src/rDock_2013.1_src/data/scripts/dock_solv.prm

>  <Rbt.Receptor>
prm/blind_docking_100.prm

>  <SCORE>
-15.0738

>  <SCORE.INTER>
-15.0738

>  <SCORE.INTER.CONST>
1

>  <SCORE.INTER.POLAR>
0

>  <SCORE.INTER.ROT>
0

>  <SCORE.INTER.SOLV>
15.3983

>  <SCORE.INTER.VDW>
-18.782

>  <SCORE.INTER.norm>
-1.25615

>  <SCORE.INTRA>
0

>  <SCORE.INTRA.DIHEDRAL>
0

>  <SCORE.INTRA.DIHEDRAL.0>
0

>  <SCORE.INTRA.POLAR>
0

>  <SCORE.INTRA.POLAR.0>
0

>  <SCORE.INTRA.REPUL>
0

>  <SCORE.INTRA.REPUL.0>
0

>  <SCORE.INTRA.SOLV>
0

>  <SCORE.INTRA.SOLV.lig_0>
-48.1583

>  <SCORE.INTRA.VDW>
0

>  <SCORE.INTRA.VDW.0>
0

>  <SCORE.INTRA.norm>
0

>  <SCORE.RESTR>
0

>  <SCORE.RESTR.CAVITY>
0

>  <SCORE.RESTR.norm>
0

>  <SCORE.SYSTEM>
0

>  <SCORE.SYSTEM.CONST>
0

>  <SCORE.SYSTEM.DIHEDRAL>
0

>  <SCORE.SYSTEM.SOLV>
0

>  <SCORE.SYSTEM.norm>
0

>  <SCORE.heavy>
12

>  <SCORE.norm>
-1.25615

>  <RMSD>
3.070

$$$$
ligand
 OpenBabel11021811503D
libRbt.so/2013.1/901 2013/11/27
 12 13  0  0  0  0  0  0  0  0999 V2000
    4.6518   15.4165    4.0351 C   0  0  0  0  0  0  0  0  0  0  0  0
    5.9594   17.0158    2.9548 C   0  0  0  0  0  0  0  0  0  0  0  0
    3.9773   14.2714    3.9829 N   0  0  0  0  0  0  0  0  0  0  0  0
    6.5617   17.5173    1.8709 N   0  0  0  0  0  0  0  0  0  0  0  0
    5.2540   15.8775    2.9171 N   0  0  0  0  0  0  0  0  0  0  0  0
    4.7469   16.0840    5.2064 N   0  0  0  0  0  0  0  0  0  0  0  0
    6.8701   19.6290    5.4062 N   0  0  0  0  0  0  0  0  0  0  0  0
    6.2358   19.1163    6.5483 C   0  0  0  0  0  0  0  0  0  0  0  0
    5.5041   17.9085    6.4686 N   0  0  0  0  0  0  0  0  0  0  0  0
    5.4405   17.2465    5.2932 C   0  0  0  0  0  0  0  0  0  0  0  0
    6.0766   17.7381    4.1487 C   0  0  0  0  0  0  0  0  0  0  0  0
    6.7974   18.9303    4.1849 C   0  0  0  0  0  0  0  0  0  0  0  0
  1  3  1  0  0  0  0
  1  5  1  0  0  0  0
  1  6  2  0  0  0  0
  2  5  2  0  0  0  0
  2 11  1  0  0  0  0
  2  4  1  0  0  0  0
  6 10  1  0  0  0  0
  7  8  2  0  0  0  0
  7 12  1  0  0  0  0
  8  9  1  0  0  0  0
  9 10  2  0  0  0  0
 10 11  1  0  0  0  0
 11 12  2  0  0  0  0
M  END
>  <CHROM.1>
5.65860552,17.20257094,4.40969801,2.30938303,-0.97461290,-1.99958299

>  <Name>
ligand

>  <RI>
0

>  <Rbt.Current_Directory>
/home/itssahil/PROJECTS/Mol_Feturizer/New_Systems/rnas/4LX5

>  <Rbt.Executable>
rbdock ($Id: //depot/dev/client3/rdock/2013.1/src/exe/rbdock.cxx#4 $)

>  <Rbt.Library>
libRbt.so (2013.1, Build901 2013/11/27)

>  <Rbt.Parameter_File>
/export/apps/rDock/src/rDock_2013.1_src/data/scripts/dock_solv.prm

>  <Rbt.Receptor>
prm/blind_docking_100.prm

>  <SCORE>
-15.0759

>  <SCORE.INTER>
-15.0759

>  <SCORE.INTER.CONST>
1

>  <SCORE.INTER.POLAR>
0

>  <SCORE.INTER.ROT>
0

>  <SCORE.INTER.SOLV>
15.4297

>  <SCORE.INTER.VDW>
-18.7939

>  <SCORE.INTER.norm>
-1.25633

>  <SCORE.INTRA>
0

>  <SCORE.INTRA.DIHEDRAL>
0

>  <SCORE.INTRA.DIHEDRAL.0>
0

>  <SCORE.INTRA.POLAR>
0

>  <SCORE.INTRA.POLAR.0>
0

>  <SCORE.INTRA.REPUL>
0

>  <SCORE.INTRA.REPUL.0>
0

>  <SCORE.INTRA.SOLV>
0

>  <SCORE.INTRA.SOLV.lig_0>
-48.1583

>  <SCORE.INTRA.VDW>
0

>  <SCORE.INTRA.VDW.0>
0

>  <SCORE.INTRA.norm>
0

>  <SCORE.RESTR>
0

>  <SCORE.RESTR.CAVITY>
0

>  <SCORE.RESTR.norm>
0

>  <SCORE.SYSTEM>
0

>  <SCORE.SYSTEM.CONST>
0

>  <SCORE.SYSTEM.DIHEDRAL>
0

>  <SCORE.SYSTEM.SOLV>
0

>  <SCORE.SYSTEM.norm>
0

>  <SCORE.heavy>
12

>  <SCORE.norm>
-1.25633

>  <RMSD>
3.070

$$$$
ligand
 OpenBabel11021811503D
libRbt.so/2013.1/901 2013/11/27
 12 13  0  0  0  0  0  0  0  0999 V2000
    4.6524   15.4143    4.0333 C   0  0  0  0  0  0  0  0  0  0  0  0
    5.9641   17.0115    2.9548 C   0  0  0  0  0  0  0  0  0  0  0  0
    3.9776   14.2694    3.9807 N   0  0  0  0  0  0  0  0  0  0  0  0
    6.5701   17.5112    1.8722 N   0  0  0  0  0  0  0  0  0  0  0  0
    5.2584   15.8735    2.9165 N   0  0  0  0  0  0  0  0  0  0  0  0
    4.7441   16.0835    5.2039 N   0  0  0  0  0  0  0  0  0  0  0  0
    6.8681   19.6279    5.4053 N   0  0  0  0  0  0  0  0  0  0  0  0
    6.2300   19.1171    6.5461 C   0  0  0  0  0  0  0  0  0  0  0  0
    5.4980   17.9095    6.4659 N   0  0  0  0  0  0  0  0  0  0  0  0
    5.4379   17.2458    5.2912 C   0  0  0  0  0  0  0  0  0  0  0  0
    6.0778   17.7355    4.1481 C   0  0  0  0  0  0  0  0  0  0  0  0
    6.7990   18.9274    4.1847 C   0  0  0  0  0  0  0  0  0  0  0  0
  1  3  1  0  0  0  0
  1  5  1  0  0  0  0
  1  6  2  0  0  0  0
  2  5  2  0  0  0  0
  2 11  1  0  0  0  0
  2  4  1  0  0  0  0
  6 10  1  0  0  0  0
  7  8  2  0  0  0  0
  7 12  1  0  0  0  0
  8  9  1  0  0  0  0
  9 10  2  0  0  0  0
 10 11  1  0  0  0  0
 11 12  2  0  0  0  0
M  END
>  <CHROM.1>
5.65874344,17.20050861,4.40849280,2.30455418,-0.97290760,-2.00504345

>  <Name>
ligand

>  <RI>
0

>  <Rbt.Current_Directory>
/home/itssahil/PROJECTS/Mol_Feturizer/New_Systems/rnas/4LX5

>  <Rbt.Executable>
rbdock ($Id: //depot/dev/client3/rdock/2013.1/src/exe/rbdock.cxx#4 $)

>  <Rbt.Library>
libRbt.so (2013.1, Build901 2013/11/27)

>  <Rbt.Parameter_File>
/export/apps/rDock/src/rDock_2013.1_src/data/scripts/dock_solv.prm

>  <Rbt.Receptor>
prm/blind_docking_40.prm

>  <SCORE>
-15.0748

>  <SCORE.INTER>
-15.0748

>  <SCORE.INTER.CONST>
1

>  <SCORE.INTER.POLAR>
0

>  <SCORE.INTER.ROT>
0

>  <SCORE.INTER.SOLV>
15.4406

>  <SCORE.INTER.VDW>
-18.7968

>  <SCORE.INTER.norm>
-1.25624

>  <SCORE.INTRA>
0

>  <SCORE.INTRA.DIHEDRAL>
0

>  <SCORE.INTRA.DIHEDRAL.0>
0

>  <SCORE.INTRA.POLAR>
0

>  <SCORE.INTRA.POLAR.0>
0

>  <SCORE.INTRA.REPUL>
0

>  <SCORE.INTRA.REPUL.0>
0

>  <SCORE.INTRA.SOLV>
0

>  <SCORE.INTRA.SOLV.lig_0>
-48.1583

>  <SCORE.INTRA.VDW>
0

>  <SCORE.INTRA.VDW.0>
0

>  <SCORE.INTRA.norm>
0

>  <SCORE.RESTR>
0

>  <SCORE.RESTR.CAVITY>
0

>  <SCORE.RESTR.norm>
0

>  <SCORE.SYSTEM>
0

>  <SCORE.SYSTEM.CONST>
0

>  <SCORE.SYSTEM.DIHEDRAL>
0

>  <SCORE.SYSTEM.SOLV>
0

>  <SCORE.SYSTEM.norm>
0

>  <SCORE.heavy>
12

>  <SCORE.norm>
-1.25624

>  <RMSD>
3.070

$$$$
ligand
 OpenBabel11021811503D
libRbt.so/2013.1/901 2013/11/27
 12 13  0  0  0  0  0  0  0  0999 V2000
    4.6440   15.4111    4.0329 C   0  0  0  0  0  0  0  0  0  0  0  0
    5.9556   17.0073    2.9528 C   0  0  0  0  0  0  0  0  0  0  0  0
    3.9699   14.2657    3.9817 N   0  0  0  0  0  0  0  0  0  0  0  0
    6.5622   17.5054    1.8698 N   0  0  0  0  0  0  0  0  0  0  0  0
    5.2506   15.8687    2.9159 N   0  0  0  0  0  0  0  0  0  0  0  0
    4.7342   16.0825    5.2024 N   0  0  0  0  0  0  0  0  0  0  0  0
    6.8559   19.6285    5.3994 N   0  0  0  0  0  0  0  0  0  0  0  0
    6.2171   19.1194    6.5406 C   0  0  0  0  0  0  0  0  0  0  0  0
    5.4859   17.9112    6.4618 N   0  0  0  0  0  0  0  0  0  0  0  0
    5.4272   17.2453    5.2883 C   0  0  0  0  0  0  0  0  0  0  0  0
    6.0678   17.7334    4.1448 C   0  0  0  0  0  0  0  0  0  0  0  0
    6.7882   18.9259    4.1801 C   0  0  0  0  0  0  0  0  0  0  0  0
  1  3  1  0  0  0  0
  1  5  1  0  0  0  0
  1  6  2  0  0  0  0
  2  5  2  0  0  0  0
  2 11  1  0  0  0  0
  2  4  1  0  0  0  0
  6 10  1  0  0  0  0
  7  8  2  0  0  0  0
  7 12  1  0  0  0  0
  8  9  1  0  0  0  0
  9 10  2  0  0  0  0
 10 11  1  0  0  0  0
 11 12  2  0  0  0  0
M  END
>  <CHROM.1>
5.64888722,17.19864172,4.40584458,2.30267862,-0.97310156,-2.00835188

>  <Name>
ligand

>  <RI>
0

>  <Rbt.Current_Directory>
/home/itssahil/PROJECTS/Mol_Feturizer/New_Systems/rnas/4LX5

>  <Rbt.Executable>
rbdock ($Id: //depot/dev/client3/rdock/2013.1/src/exe/rbdock.cxx#4 $)

>  <Rbt.Library>
libRbt.so (2013.1, Build901 2013/11/27)

>  <Rbt.Parameter_File>
/export/apps/rDock/src/rDock_2013.1_src/data/scripts/dock_solv.prm

>  <Rbt.Receptor>
prm/blind_docking_60.prm

>  <SCORE>
-15.0713

>  <SCORE.INTER>
-15.0713

>  <SCORE.INTER.CONST>
1

>  <SCORE.INTER.POLAR>
0

>  <SCORE.INTER.ROT>
0

>  <SCORE.INTER.SOLV>
15.4

>  <SCORE.INTER.VDW>
-18.7809

>  <SCORE.INTER.norm>
-1.25595

>  <SCORE.INTRA>
0

>  <SCORE.INTRA.DIHEDRAL>
0

>  <SCORE.INTRA.DIHEDRAL.0>
0

>  <SCORE.INTRA.POLAR>
0

>  <SCORE.INTRA.POLAR.0>
0

>  <SCORE.INTRA.REPUL>
0

>  <SCORE.INTRA.REPUL.0>
0

>  <SCORE.INTRA.SOLV>
0

>  <SCORE.INTRA.SOLV.lig_0>
-48.1583

>  <SCORE.INTRA.VDW>
0

>  <SCORE.INTRA.VDW.0>
0

>  <SCORE.INTRA.norm>
0

>  <SCORE.RESTR>
0

>  <SCORE.RESTR.CAVITY>
0

>  <SCORE.RESTR.norm>
0

>  <SCORE.SYSTEM>
0

>  <SCORE.SYSTEM.CONST>
0

>  <SCORE.SYSTEM.DIHEDRAL>
0

>  <SCORE.SYSTEM.SOLV>
0

>  <SCORE.SYSTEM.norm>
0

>  <SCORE.heavy>
12

>  <SCORE.norm>
-1.25595

>  <RMSD>
3.070

$$$$
ligand
 OpenBabel11021811503D
libRbt.so/2013.1/901 2013/11/27
 12 13  0  0  0  0  0  0  0  0999 V2000
    4.6439   15.4140    4.0353 C   0  0  0  0  0  0  0  0  0  0  0  0
    5.9588   17.0043    2.9503 C   0  0  0  0  0  0  0  0  0  0  0  0
    3.9650   14.2714    3.9868 N   0  0  0  0  0  0  0  0  0  0  0  0
    6.5640   17.4994    1.8652 N   0  0  0  0  0  0  0  0  0  0  0  0
    5.2490   15.8686    2.9162 N   0  0  0  0  0  0  0  0  0  0  0  0
    4.7406   16.0855    5.2043 N   0  0  0  0  0  0  0  0  0  0  0  0
    6.8774   19.6229    5.3929 N   0  0  0  0  0  0  0  0  0  0  0  0
    6.2401   19.1170    6.5363 C   0  0  0  0  0  0  0  0  0  0  0  0
    5.5037   17.9117    6.4604 N   0  0  0  0  0  0  0  0  0  0  0  0
    5.4386   17.2456    5.2874 C   0  0  0  0  0  0  0  0  0  0  0  0
    6.0776   17.7305    4.1417 C   0  0  0  0  0  0  0  0  0  0  0  0
    6.8031   18.9200    4.1741 C   0  0  0  0  0  0  0  0  0  0  0  0
  1  3  1  0  0  0  0
  1  5  1  0  0  0  0
  1  6  2  0  0  0  0
  2  5  2  0  0  0  0
  2 11  1  0  0  0  0
  2  4  1  0  0  0  0
  6 10  1  0  0  0  0
  7  8  2  0  0  0  0
  7 12  1  0  0  0  0
  8  9  1  0  0  0  0
  9 10  2  0  0  0  0
 10 11  1  0  0  0  0
 11 12  2  0  0  0  0
M  END
>  <CHROM.1>
5.65734592,17.19756574,4.40426986,2.31077191,-0.97070160,-2.00214806

>  <Name>
ligand

>  <RI>
0

>  <Rbt.Current_Directory>
/home/itssahil/PROJECTS/Mol_Feturizer/New_Systems/rnas/4LX5

>  <Rbt.Executable>
rbdock ($Id: //depot/dev/client3/rdock/2013.1/src/exe/rbdock.cxx#4 $)

>  <Rbt.Library>
libRbt.so (2013.1, Build901 2013/11/27)

>  <Rbt.Parameter_File>
/export/apps/rDock/src/rDock_2013.1_src/data/scripts/dock_solv.prm

>  <Rbt.Receptor>
prm/blind_docking_80.prm

>  <SCORE>
-15.0721

>  <SCORE.INTER>
-15.0721

>  <SCORE.INTER.CONST>
1

>  <SCORE.INTER.POLAR>
0

>  <SCORE.INTER.ROT>
0

>  <SCORE.INTER.SOLV>
15.3793

>  <SCORE.INTER.VDW>
-18.7745

>  <SCORE.INTER.norm>
-1.25601

>  <SCORE.INTRA>
0

>  <SCORE.INTRA.DIHEDRAL>
0

>  <SCORE.INTRA.DIHEDRAL.0>
0

>  <SCORE.INTRA.POLAR>
0

>  <SCORE.INTRA.POLAR.0>
0

>  <SCORE.INTRA.REPUL>
0

>  <SCORE.INTRA.REPUL.0>
0

>  <SCORE.INTRA.SOLV>
0

>  <SCORE.INTRA.SOLV.lig_0>
-48.1583

>  <SCORE.INTRA.VDW>
0

>  <SCORE.INTRA.VDW.0>
0

>  <SCORE.INTRA.norm>
0

>  <SCORE.RESTR>
0

>  <SCORE.RESTR.CAVITY>
0

>  <SCORE.RESTR.norm>
0

>  <SCORE.SYSTEM>
0

>  <SCORE.SYSTEM.CONST>
0

>  <SCORE.SYSTEM.DIHEDRAL>
0

>  <SCORE.SYSTEM.SOLV>
0

>  <SCORE.SYSTEM.norm>
0

>  <SCORE.heavy>
12

>  <SCORE.norm>
-1.25601

>  <RMSD>
3.070

$$$$
ligand
 OpenBabel11021811503D
libRbt.so/2013.1/901 2013/11/27
 12 13  0  0  0  0  0  0  0  0999 V2000
    4.6448   15.4215    4.0351 C   0  0  0  0  0  0  0  0  0  0  0  0
    5.9544   17.0186    2.9538 C   0  0  0  0  0  0  0  0  0  0  0  0
    3.9673   14.2782    3.9832 N   0  0  0  0  0  0  0  0  0  0  0  0
    6.5559   17.5195    1.8693 N   0  0  0  0  0  0  0  0  0  0  0  0
    5.2460   15.8821    2.9164 N   0  0  0  0  0  0  0  0  0  0  0  0
    4.7438   16.0878    5.2069 N   0  0  0  0  0  0  0  0  0  0  0  0
    6.8764   19.6272    5.4058 N   0  0  0  0  0  0  0  0  0  0  0  0
    6.2430   19.1151    6.5487 C   0  0  0  0  0  0  0  0  0  0  0  0
    5.5080   17.9092    6.4693 N   0  0  0  0  0  0  0  0  0  0  0  0
    5.4405   17.2484    5.2934 C   0  0  0  0  0  0  0  0  0  0  0  0
    6.0756   17.7394    4.1482 C   0  0  0  0  0  0  0  0  0  0  0  0
    6.7996   18.9298    4.1840 C   0  0  0  0  0  0  0  0  0  0  0  0
  1  3  1  0  0  0  0
  1  5  1  0  0  0  0
  1  6  2  0  0  0  0
  2  5  2  0  0  0  0
  2 11  1  0  0  0  0
  2  4  1  0  0  0  0
  6 10  1  0  0  0  0
  7  8  2  0  0  0  0
  7 12  1  0  0  0  0
  8  9  1  0  0  0  0
  9 10  2  0  0  0  0
 10 11  1  0  0  0  0
 11 12  2  0  0  0  0
M  END
>  <CHROM.1>
5.65682438,17.20475255,4.40946225,2.31433583,-0.97309525,-1.99458667

>  <Name>
ligand

>  <RI>
0

>  <Rbt.Current_Directory>
/home/itssahil/PROJECTS/Mol_Feturizer/New_Systems/rnas/4LX5

>  <Rbt.Executable>
rbdock ($Id: //depot/dev/client3/rdock/2013.1/src/exe/rbdock.cxx#4 $)

>  <Rbt.Library>
libRbt.so (2013.1, Build901 2013/11/27)

>  <Rbt.Parameter_File>
/export/apps/rDock/src/rDock_2013.1_src/data/scripts/dock_solv.prm

>  <Rbt.Receptor>
prm/blind_docking_80.prm

>  <SCORE>
-15.0757

>  <SCORE.INTER>
-15.0757

>  <SCORE.INTER.CONST>
1

>  <SCORE.INTER.POLAR>
0

>  <SCORE.INTER.ROT>
0

>  <SCORE.INTER.SOLV>
15.3716

>  <SCORE.INTER.VDW>
-18.7744

>  <SCORE.INTER.norm>
-1.25631

>  <SCORE.INTRA>
0

>  <SCORE.INTRA.DIHEDRAL>
0

>  <SCORE.INTRA.DIHEDRAL.0>
0

>  <SCORE.INTRA.POLAR>
0

>  <SCORE.INTRA.POLAR.0>
0

>  <SCORE.INTRA.REPUL>
0

>  <SCORE.INTRA.REPUL.0>
0

>  <SCORE.INTRA.SOLV>
0

>  <SCORE.INTRA.SOLV.lig_0>
-48.1583

>  <SCORE.INTRA.VDW>
0

>  <SCORE.INTRA.VDW.0>
0

>  <SCORE.INTRA.norm>
0

>  <SCORE.RESTR>
0

>  <SCORE.RESTR.CAVITY>
0

>  <SCORE.RESTR.norm>
0

>  <SCORE.SYSTEM>
0

>  <SCORE.SYSTEM.CONST>
0

>  <SCORE.SYSTEM.DIHEDRAL>
0

>  <SCORE.SYSTEM.SOLV>
0

>  <SCORE.SYSTEM.norm>
0

>  <SCORE.heavy>
12

>  <SCORE.norm>
-1.25631

>  <RMSD>
3.070

$$$$
ligand
 OpenBabel11021811503D
libRbt.so/2013.1/901 2013/11/27
 12 13  0  0  0  0  0  0  0  0999 V2000
    4.6585   15.4154    4.0338 C   0  0  0  0  0  0  0  0  0  0  0  0
    5.9798   17.0092    2.9619 C   0  0  0  0  0  0  0  0  0  0  0  0
    3.9816   14.2719    3.9780 N   0  0  0  0  0  0  0  0  0  0  0  0
    6.5930   17.5069    1.8824 N   0  0  0  0  0  0  0  0  0  0  0  0
    5.2719   15.8726    2.9203 N   0  0  0  0  0  0  0  0  0  0  0  0
    4.7449   16.0851    5.2045 N   0  0  0  0  0  0  0  0  0  0  0  0
    6.8753   19.6251    5.4159 N   0  0  0  0  0  0  0  0  0  0  0  0
    6.2296   19.1164    6.5534 C   0  0  0  0  0  0  0  0  0  0  0  0
    5.4955   17.9103    6.4697 N   0  0  0  0  0  0  0  0  0  0  0  0
    5.4407   17.2460    5.2951 C   0  0  0  0  0  0  0  0  0  0  0  0
    6.0882   17.7336    4.1553 C   0  0  0  0  0  0  0  0  0  0  0  0
    6.8117   18.9241    4.1954 C   0  0  0  0  0  0  0  0  0  0  0  0
  1  3  1  0  0  0  0
  1  5  1  0  0  0  0
  1  6  2  0  0  0  0
  2  5  2  0  0  0  0
  2 11  1  0  0  0  0
  2  4  1  0  0  0  0
  6 10  1  0  0  0  0
  7  8  2  0  0  0  0
  7 12  1  0  0  0  0
  8  9  1  0  0  0  0
  9 10  2  0  0  0  0
 10 11  1  0  0  0  0
 11 12  2  0  0  0  0
M  END
>  <CHROM.1>
5.66652772,17.19972772,4.41368571,2.29698317,-0.96855366,-2.01189191

>  <Name>
ligand

>  <RI>
0

>  <Rbt.Current_Directory>
/home/itssahil/PROJECTS/Mol_Feturizer/New_Systems/rnas/4LX5

>  <Rbt.Executable>
rbdock ($Id: //depot/dev/client3/rdock/2013.1/src/exe/rbdock.cxx#4 $)

>  <Rbt.Library>
libRbt.so (2013.1, Build901 2013/11/27)

>  <Rbt.Parameter_File>
/export/apps/rDock/src/rDock_2013.1_src/data/scripts/dock_solv.prm

>  <Rbt.Receptor>
prm/pocket_docking_3.prm

>  <SCORE>
-15.0681

>  <SCORE.INTER>
-15.0681

>  <SCORE.INTER.CONST>
1

>  <SCORE.INTER.POLAR>
0

>  <SCORE.INTER.ROT>
0

>  <SCORE.INTER.SOLV>
15.4766

>  <SCORE.INTER.VDW>
-18.8043

>  <SCORE.INTER.norm>
-1.25567

>  <SCORE.INTRA>
0

>  <SCORE.INTRA.DIHEDRAL>
0

>  <SCORE.INTRA.DIHEDRAL.0>
0

>  <SCORE.INTRA.POLAR>
0

>  <SCORE.INTRA.POLAR.0>
0

>  <SCORE.INTRA.REPUL>
0

>  <SCORE.INTRA.REPUL.0>
0

>  <SCORE.INTRA.SOLV>
0

>  <SCORE.INTRA.SOLV.lig_0>
-48.1583

>  <SCORE.INTRA.VDW>
0

>  <SCORE.INTRA.VDW.0>
0

>  <SCORE.INTRA.norm>
0

>  <SCORE.RESTR>
0

>  <SCORE.RESTR.CAVITY>
0

>  <SCORE.RESTR.norm>
0

>  <SCORE.SYSTEM>
0

>  <SCORE.SYSTEM.CONST>
0

>  <SCORE.SYSTEM.DIHEDRAL>
0

>  <SCORE.SYSTEM.SOLV>
0

>  <SCORE.SYSTEM.norm>
0

>  <SCORE.heavy>
12

>  <SCORE.norm>
-1.25567

>  <RMSD>
3.070

$$$$
ligand
 OpenBabel11021811503D
libRbt.so/2013.1/901 2013/11/27
 12 13  0  0  0  0  0  0  0  0999 V2000
    4.6469   15.4271    4.0363 C   0  0  0  0  0  0  0  0  0  0  0  0
    5.9608   17.0207    2.9549 C   0  0  0  0  0  0  0  0  0  0  0  0
    3.9655   14.2861    3.9841 N   0  0  0  0  0  0  0  0  0  0  0  0
    6.5628   17.5206    1.8702 N   0  0  0  0  0  0  0  0  0  0  0  0
    5.2486   15.8866    2.9173 N   0  0  0  0  0  0  0  0  0  0  0  0
    4.7495   16.0920    5.2085 N   0  0  0  0  0  0  0  0  0  0  0  0
    6.8942   19.6240    5.4083 N   0  0  0  0  0  0  0  0  0  0  0  0
    6.2603   19.1131    6.5514 C   0  0  0  0  0  0  0  0  0  0  0  0
    5.5212   17.9097    6.4717 N   0  0  0  0  0  0  0  0  0  0  0  0
    5.4502   17.2502    5.2953 C   0  0  0  0  0  0  0  0  0  0  0  0
    6.0857   17.7401    4.1498 C   0  0  0  0  0  0  0  0  0  0  0  0
    6.8137   18.9280    4.1859 C   0  0  0  0  0  0  0  0  0  0  0  0
  1  3  1  0  0  0  0
  1  5  1  0  0  0  0
  1  6  2  0  0  0  0
  2  5  2  0  0  0  0
  2 11  1  0  0  0  0
  2  4  1  0  0  0  0
  6 10  1  0  0  0  0
  7  8  2  0  0  0  0
  7 12  1  0  0  0  0
  8  9  1  0  0  0  0
  9 10  2  0  0  0  0
 10 11  1  0  0  0  0
 11 12  2  0  0  0  0
M  END
>  <CHROM.1>
5.66539424,17.20659010,4.41108309,2.31850863,-0.97046669,-1.99026140

>  <Name>
ligand

>  <RI>
0

>  <Rbt.Current_Directory>
/home/itssahil/PROJECTS/Mol_Feturizer/New_Systems/rnas/4LX5

>  <Rbt.Executable>
rbdock ($Id: //depot/dev/client3/rdock/2013.1/src/exe/rbdock.cxx#4 $)

>  <Rbt.Library>
libRbt.so (2013.1, Build901 2013/11/27)

>  <Rbt.Parameter_File>
/export/apps/rDock/src/rDock_2013.1_src/data/scripts/dock_solv.prm

>  <Rbt.Receptor>
prm/pocket_docking_4.prm

>  <SCORE>
-15.0683

>  <SCORE.INTER>
-15.0683

>  <SCORE.INTER.CONST>
1

>  <SCORE.INTER.POLAR>
0

>  <SCORE.INTER.ROT>
0

>  <SCORE.INTER.SOLV>
15.3657

>  <SCORE.INTER.VDW>
-18.7675

>  <SCORE.INTER.norm>
-1.25569

>  <SCORE.INTRA>
0

>  <SCORE.INTRA.DIHEDRAL>
0

>  <SCORE.INTRA.DIHEDRAL.0>
0

>  <SCORE.INTRA.POLAR>
0

>  <SCORE.INTRA.POLAR.0>
0

>  <SCORE.INTRA.REPUL>
0

>  <SCORE.INTRA.REPUL.0>
0

>  <SCORE.INTRA.SOLV>
0

>  <SCORE.INTRA.SOLV.lig_0>
-48.1583

>  <SCORE.INTRA.VDW>
0

>  <SCORE.INTRA.VDW.0>
0

>  <SCORE.INTRA.norm>
0

>  <SCORE.RESTR>
0

>  <SCORE.RESTR.CAVITY>
0

>  <SCORE.RESTR.norm>
0

>  <SCORE.SYSTEM>
0

>  <SCORE.SYSTEM.CONST>
0

>  <SCORE.SYSTEM.DIHEDRAL>
0

>  <SCORE.SYSTEM.SOLV>
0

>  <SCORE.SYSTEM.norm>
0

>  <SCORE.heavy>
12

>  <SCORE.norm>
-1.25569

>  <RMSD>
3.070

$$$$
ligand
 OpenBabel11021811503D
libRbt.so/2013.1/901 2013/11/27
 12 13  0  0  0  0  0  0  0  0999 V2000
    4.6617   15.4253    4.0350 C   0  0  0  0  0  0  0  0  0  0  0  0
    5.9769   17.0254    2.9650 C   0  0  0  0  0  0  0  0  0  0  0  0
    3.9872   14.2805    3.9771 N   0  0  0  0  0  0  0  0  0  0  0  0
    6.5865   17.5278    1.8856 N   0  0  0  0  0  0  0  0  0  0  0  0
    5.2714   15.8874    2.9214 N   0  0  0  0  0  0  0  0  0  0  0  0
    4.7494   16.0915    5.2076 N   0  0  0  0  0  0  0  0  0  0  0  0
    6.8724   19.6356    5.4251 N   0  0  0  0  0  0  0  0  0  0  0  0
    6.2305   19.1219    6.5625 C   0  0  0  0  0  0  0  0  0  0  0  0
    5.4988   17.9144    6.4767 N   0  0  0  0  0  0  0  0  0  0  0  0
    5.4428   17.2537    5.3002 C   0  0  0  0  0  0  0  0  0  0  0  0
    6.0865   17.7463    4.1604 C   0  0  0  0  0  0  0  0  0  0  0  0
    6.8074   18.9382    4.2026 C   0  0  0  0  0  0  0  0  0  0  0  0
  1  3  1  0  0  0  0
  1  5  1  0  0  0  0
  1  6  2  0  0  0  0
  2  5  2  0  0  0  0
  2 11  1  0  0  0  0
  2  4  1  0  0  0  0
  6 10  1  0  0  0  0
  7  8  2  0  0  0  0
  7 12  1  0  0  0  0
  8  9  1  0  0  0  0
  9 10  2  0  0  0  0
 10 11  1  0  0  0  0
 11 12  2  0  0  0  0
M  END
>  <CHROM.1>
5.66663186,17.21065011,4.41809732,2.29904579,-0.97156896,-2.00705589

>  <Name>
ligand

>  <RI>
0

>  <Rbt.Current_Directory>
/home/itssahil/PROJECTS/Mol_Feturizer/New_Systems/rnas/4LX5

>  <Rbt.Executable>
rbdock ($Id: //depot/dev/client3/rdock/2013.1/src/exe/rbdock.cxx#4 $)

>  <Rbt.Library>
libRbt.so (2013.1, Build901 2013/11/27)

>  <Rbt.Parameter_File>
/export/apps/rDock/src/rDock_2013.1_src/data/scripts/dock_solv.prm

>  <Rbt.Receptor>
prm/pocket_docking_4.prm

>  <SCORE>
-15.0652

>  <SCORE.INTER>
-15.0652

>  <SCORE.INTER.CONST>
1

>  <SCORE.INTER.POLAR>
0

>  <SCORE.INTER.ROT>
0

>  <SCORE.INTER.SOLV>
15.4922

>  <SCORE.INTER.VDW>
-18.8076

>  <SCORE.INTER.norm>
-1.25544

>  <SCORE.INTRA>
0

>  <SCORE.INTRA.DIHEDRAL>
0

>  <SCORE.INTRA.DIHEDRAL.0>
0

>  <SCORE.INTRA.POLAR>
0

>  <SCORE.INTRA.POLAR.0>
0

>  <SCORE.INTRA.REPUL>
0

>  <SCORE.INTRA.REPUL.0>
0

>  <SCORE.INTRA.SOLV>
0

>  <SCORE.INTRA.SOLV.lig_0>
-48.1583

>  <SCORE.INTRA.VDW>
0

>  <SCORE.INTRA.VDW.0>
0

>  <SCORE.INTRA.norm>
0

>  <SCORE.RESTR>
0

>  <SCORE.RESTR.CAVITY>
0

>  <SCORE.RESTR.norm>
0

>  <SCORE.SYSTEM>
0

>  <SCORE.SYSTEM.CONST>
0

>  <SCORE.SYSTEM.DIHEDRAL>
0

>  <SCORE.SYSTEM.SOLV>
0

>  <SCORE.SYSTEM.norm>
0

>  <SCORE.heavy>
12

>  <SCORE.norm>
-1.25544

>  <RMSD>
3.070

$$$$
ligand
 OpenBabel11021811503D
libRbt.so/2013.1/901 2013/11/27
 12 13  0  0  0  0  0  0  0  0999 V2000
    4.6566   15.4162    4.0352 C   0  0  0  0  0  0  0  0  0  0  0  0
    5.9786   17.0060    2.9583 C   0  0  0  0  0  0  0  0  0  0  0  0
    3.9770   14.2742    3.9823 N   0  0  0  0  0  0  0  0  0  0  0  0
    6.5901   17.5013    1.8767 N   0  0  0  0  0  0  0  0  0  0  0  0
    5.2680   15.8710    2.9196 N   0  0  0  0  0  0  0  0  0  0  0  0
    4.7475   16.0869    5.2050 N   0  0  0  0  0  0  0  0  0  0  0  0
    6.8863   19.6224    5.4074 N   0  0  0  0  0  0  0  0  0  0  0  0
    6.2424   19.1163    6.5470 C   0  0  0  0  0  0  0  0  0  0  0  0
    5.5054   17.9117    6.4664 N   0  0  0  0  0  0  0  0  0  0  0  0
    5.4461   17.2463    5.2926 C   0  0  0  0  0  0  0  0  0  0  0  0
    6.0917   17.7314    4.1507 C   0  0  0  0  0  0  0  0  0  0  0  0
    6.8179   18.9203    4.1877 C   0  0  0  0  0  0  0  0  0  0  0  0
  1  3  1  0  0  0  0
  1  5  1  0  0  0  0
  1  6  2  0  0  0  0
  2  5  2  0  0  0  0
  2 11  1  0  0  0  0
  2  4  1  0  0  0  0
  6 10  1  0  0  0  0
  7  8  2  0  0  0  0
  7 12  1  0  0  0  0
  8  9  1  0  0  0  0
  9 10  2  0  0  0  0
 10 11  1  0  0  0  0
 11 12  2  0  0  0  0
M  END
>  <CHROM.1>
5.66951696,17.19867994,4.41068279,2.30278563,-0.96765300,-2.00811417

>  <Name>
ligand

>  <RI>
0

>  <Rbt.Current_Directory>
/home/itssahil/PROJECTS/Mol_Feturizer/New_Systems/rnas/4LX5

>  <Rbt.Executable>
rbdock ($Id: //depot/dev/client3/rdock/2013.1/src/exe/rbdock.cxx#4 $)

>  <Rbt.Library>
libRbt.so (2013.1, Build901 2013/11/27)

>  <Rbt.Parameter_File>
/export/apps/rDock/src/rDock_2013.1_src/data/scripts/dock_solv.prm

>  <Rbt.Receptor>
prm/pocket_docking_4.prm

>  <SCORE>
-15.0663

>  <SCORE.INTER>
-15.0663

>  <SCORE.INTER.CONST>
1

>  <SCORE.INTER.POLAR>
0

>  <SCORE.INTER.ROT>
0

>  <SCORE.INTER.SOLV>
15.456

>  <SCORE.INTER.VDW>
-18.7962

>  <SCORE.INTER.norm>
-1.25552

>  <SCORE.INTRA>
0

>  <SCORE.INTRA.DIHEDRAL>
0

>  <SCORE.INTRA.DIHEDRAL.0>
0

>  <SCORE.INTRA.POLAR>
0

>  <SCORE.INTRA.POLAR.0>
0

>  <SCORE.INTRA.REPUL>
0

>  <SCORE.INTRA.REPUL.0>
0

>  <SCORE.INTRA.SOLV>
0

>  <SCORE.INTRA.SOLV.lig_0>
-48.1583

>  <SCORE.INTRA.VDW>
0

>  <SCORE.INTRA.VDW.0>
0

>  <SCORE.INTRA.norm>
0

>  <SCORE.RESTR>
0

>  <SCORE.RESTR.CAVITY>
0

>  <SCORE.RESTR.norm>
0

>  <SCORE.SYSTEM>
0

>  <SCORE.SYSTEM.CONST>
0

>  <SCORE.SYSTEM.DIHEDRAL>
0

>  <SCORE.SYSTEM.SOLV>
0

>  <SCORE.SYSTEM.norm>
0

>  <SCORE.heavy>
12

>  <SCORE.norm>
-1.25552

>  <RMSD>
3.070

$$$$
ligand
 OpenBabel11021811503D
libRbt.so/2013.1/901 2013/11/27
 12 13  0  0  0  0  0  0  0  0999 V2000
    4.6542   15.4160    4.0335 C   0  0  0  0  0  0  0  0  0  0  0  0
    5.9616   17.0192    2.9586 C   0  0  0  0  0  0  0  0  0  0  0  0
    3.9824   14.2695    3.9783 N   0  0  0  0  0  0  0  0  0  0  0  0
    6.5661   17.5230    1.8771 N   0  0  0  0  0  0  0  0  0  0  0  0
    5.2588   15.8794    2.9178 N   0  0  0  0  0  0  0  0  0  0  0  0
    4.7443   16.0827    5.2057 N   0  0  0  0  0  0  0  0  0  0  0  0
    6.8591   19.6322    5.4151 N   0  0  0  0  0  0  0  0  0  0  0  0
    6.2224   19.1171    6.5548 C   0  0  0  0  0  0  0  0  0  0  0  0
    5.4936   17.9077    6.4718 N   0  0  0  0  0  0  0  0  0  0  0  0
    5.4350   17.2466    5.2957 C   0  0  0  0  0  0  0  0  0  0  0  0
    6.0735   17.7406    4.1536 C   0  0  0  0  0  0  0  0  0  0  0  0
    6.7916   18.9344    4.1930 C   0  0  0  0  0  0  0  0  0  0  0  0
  1  3  1  0  0  0  0
  1  5  1  0  0  0  0
  1  6  2  0  0  0  0
  2  5  2  0  0  0  0
  2 11  1  0  0  0  0
  2  4  1  0  0  0  0
  6 10  1  0  0  0  0
  7  8  2  0  0  0  0
  7 12  1  0  0  0  0
  8  9  1  0  0  0  0
  9 10  2  0  0  0  0
 10 11  1  0  0  0  0
 11 12  2  0  0  0  0
M  END
>  <CHROM.1>
5.65592918,17.20397510,4.41278544,2.30280670,-0.97534353,-2.00413820

>  <Name>
ligand

>  <RI>
0

>  <Rbt.Current_Directory>
/home/itssahil/PROJECTS/Mol_Feturizer/New_Systems/rnas/4LX5

>  <Rbt.Executable>
rbdock ($Id: //depot/dev/client3/rdock/2013.1/src/exe/rbdock.cxx#4 $)

>  <Rbt.Library>
libRbt.so (2013.1, Build901 2013/11/27)

>  <Rbt.Parameter_File>
/export/apps/rDock/src/rDock_2013.1_src/data/scripts/dock_solv.prm

>  <Rbt.Receptor>
prm/pocket_docking_4.prm

>  <SCORE>
-15.075

>  <SCORE.INTER>
-15.075

>  <SCORE.INTER.CONST>
1

>  <SCORE.INTER.POLAR>
0

>  <SCORE.INTER.ROT>
0

>  <SCORE.INTER.SOLV>
15.4552

>  <SCORE.INTER.VDW>
-18.8017

>  <SCORE.INTER.norm>
-1.25625

>  <SCORE.INTRA>
0

>  <SCORE.INTRA.DIHEDRAL>
0

>  <SCORE.INTRA.DIHEDRAL.0>
0

>  <SCORE.INTRA.POLAR>
0

>  <SCORE.INTRA.POLAR.0>
0

>  <SCORE.INTRA.REPUL>
0

>  <SCORE.INTRA.REPUL.0>
0

>  <SCORE.INTRA.SOLV>
0

>  <SCORE.INTRA.SOLV.lig_0>
-48.1583

>  <SCORE.INTRA.VDW>
0

>  <SCORE.INTRA.VDW.0>
0

>  <SCORE.INTRA.norm>
0

>  <SCORE.RESTR>
0

>  <SCORE.RESTR.CAVITY>
0

>  <SCORE.RESTR.norm>
0

>  <SCORE.SYSTEM>
0

>  <SCORE.SYSTEM.CONST>
0

>  <SCORE.SYSTEM.DIHEDRAL>
0

>  <SCORE.SYSTEM.SOLV>
0

>  <SCORE.SYSTEM.norm>
0

>  <SCORE.heavy>
12

>  <SCORE.norm>
-1.25625

>  <RMSD>
3.070

$$$$
ligand
 OpenBabel11021811503D
libRbt.so/2013.1/901 2013/11/27
 12 13  0  0  0  0  0  0  0  0999 V2000
    4.6501   15.4142    4.0328 C   0  0  0  0  0  0  0  0  0  0  0  0
    5.9622   17.0115    2.9548 C   0  0  0  0  0  0  0  0  0  0  0  0
    3.9754   14.2693    3.9800 N   0  0  0  0  0  0  0  0  0  0  0  0
    6.5686   17.5110    1.8724 N   0  0  0  0  0  0  0  0  0  0  0  0
    5.2566   15.8733    2.9163 N   0  0  0  0  0  0  0  0  0  0  0  0
    4.7411   16.0836    5.2034 N   0  0  0  0  0  0  0  0  0  0  0  0
    6.8647   19.6283    5.4054 N   0  0  0  0  0  0  0  0  0  0  0  0
    6.2261   19.1176    6.5459 C   0  0  0  0  0  0  0  0  0  0  0  0
    5.4942   17.9099    6.4655 N   0  0  0  0  0  0  0  0  0  0  0  0
    5.4348   17.2460    5.2909 C   0  0  0  0  0  0  0  0  0  0  0  0
    6.0752   17.7356    4.1480 C   0  0  0  0  0  0  0  0  0  0  0  0
    6.7963   18.9276    4.1849 C   0  0  0  0  0  0  0  0  0  0  0  0
  1  3  1  0  0  0  0
  1  5  1  0  0  0  0
  1  6  2  0  0  0  0
  2  5  2  0  0  0  0
  2 11  1  0  0  0  0
  2  4  1  0  0  0  0
  6 10  1  0  0  0  0
  7  8  2  0  0  0  0
  7 12  1  0  0  0  0
  8  9  1  0  0  0  0
  9 10  2  0  0  0  0
 10 11  1  0  0  0  0
 11 12  2  0  0  0  0
M  END
>  <CHROM.1>
5.65608735,17.20063663,4.40829783,2.30368942,-0.97278843,-2.00590037

>  <Name>
ligand

>  <RI>
0

>  <Rbt.Current_Directory>
/home/itssahil/PROJECTS/Mol_Feturizer/New_Systems/rnas/4LX5

>  <Rbt.Executable>
rbdock ($Id: //depot/dev/client3/rdock/2013.1/src/exe/rbdock.cxx#4 $)

>  <Rbt.Library>
libRbt.so (2013.1, Build901 2013/11/27)

>  <Rbt.Parameter_File>
/export/apps/rDock/src/rDock_2013.1_src/data/scripts/dock_solv.prm

>  <Rbt.Receptor>
prm/pocket_docking_4.prm

>  <SCORE>
-15.0745

>  <SCORE.INTER>
-15.0745

>  <SCORE.INTER.CONST>
1

>  <SCORE.INTER.POLAR>
0

>  <SCORE.INTER.ROT>
0

>  <SCORE.INTER.SOLV>
15.4286

>  <SCORE.INTER.VDW>
-18.7925

>  <SCORE.INTER.norm>
-1.25621

>  <SCORE.INTRA>
0

>  <SCORE.INTRA.DIHEDRAL>
0

>  <SCORE.INTRA.DIHEDRAL.0>
0

>  <SCORE.INTRA.POLAR>
0

>  <SCORE.INTRA.POLAR.0>
0

>  <SCORE.INTRA.REPUL>
0

>  <SCORE.INTRA.REPUL.0>
0

>  <SCORE.INTRA.SOLV>
0

>  <SCORE.INTRA.SOLV.lig_0>
-48.1583

>  <SCORE.INTRA.VDW>
0

>  <SCORE.INTRA.VDW.0>
0

>  <SCORE.INTRA.norm>
0

>  <SCORE.RESTR>
0

>  <SCORE.RESTR.CAVITY>
0

>  <SCORE.RESTR.norm>
0

>  <SCORE.SYSTEM>
0

>  <SCORE.SYSTEM.CONST>
0

>  <SCORE.SYSTEM.DIHEDRAL>
0

>  <SCORE.SYSTEM.SOLV>
0

>  <SCORE.SYSTEM.norm>
0

>  <SCORE.heavy>
12

>  <SCORE.norm>
-1.25621

>  <RMSD>
3.070

$$$$
ligand
 OpenBabel11021811503D
libRbt.so/2013.1/901 2013/11/27
 12 13  0  0  0  0  0  0  0  0999 V2000
    4.6499   15.4146    4.0339 C   0  0  0  0  0  0  0  0  0  0  0  0
    5.9668   17.0092    2.9578 C   0  0  0  0  0  0  0  0  0  0  0  0
    3.9737   14.2706    3.9804 N   0  0  0  0  0  0  0  0  0  0  0  0
    6.5764   17.5072    1.8764 N   0  0  0  0  0  0  0  0  0  0  0  0
    5.2596   15.8721    2.9185 N   0  0  0  0  0  0  0  0  0  0  0  0
    4.7393   16.0847    5.2043 N   0  0  0  0  0  0  0  0  0  0  0  0
    6.8676   19.6264    5.4086 N   0  0  0  0  0  0  0  0  0  0  0  0
    6.2256   19.1174    6.5481 C   0  0  0  0  0  0  0  0  0  0  0  0
    5.4922   17.9107    6.4668 N   0  0  0  0  0  0  0  0  0  0  0  0
    5.4344   17.2461    5.2926 C   0  0  0  0  0  0  0  0  0  0  0  0
    6.0782   17.7340    4.1508 C   0  0  0  0  0  0  0  0  0  0  0  0
    6.8009   18.9250    4.1885 C   0  0  0  0  0  0  0  0  0  0  0  0
  1  3  1  0  0  0  0
  1  5  1  0  0  0  0
  1  6  2  0  0  0  0
  2  5  2  0  0  0  0
  2 11  1  0  0  0  0
  2  4  1  0  0  0  0
  6 10  1  0  0  0  0
  7  8  2  0  0  0  0
  7 12  1  0  0  0  0
  8  9  1  0  0  0  0
  9 10  2  0  0  0  0
 10 11  1  0  0  0  0
 11 12  2  0  0  0  0
M  END
>  <CHROM.1>
5.65769424,17.19982096,4.41046676,2.30112887,-0.97051300,-2.00868269

>  <Name>
ligand

>  <RI>
0

>  <Rbt.Current_Directory>
/home/itssahil/PROJECTS/Mol_Feturizer/New_Systems/rnas/4LX5

>  <Rbt.Executable>
rbdock ($Id: //depot/dev/client3/rdock/2013.1/src/exe/rbdock.cxx#4 $)

>  <Rbt.Library>
libRbt.so (2013.1, Build901 2013/11/27)

>  <Rbt.Parameter_File>
/export/apps/rDock/src/rDock_2013.1_src/data/scripts/dock_solv.prm

>  <Rbt.Receptor>
prm/pocket_docking_5.prm

>  <SCORE>
-15.0707

>  <SCORE.INTER>
-15.0707

>  <SCORE.INTER.CONST>
1

>  <SCORE.INTER.POLAR>
0

>  <SCORE.INTER.ROT>
0

>  <SCORE.INTER.SOLV>
15.4264

>  <SCORE.INTER.VDW>
-18.7893

>  <SCORE.INTER.norm>
-1.25589

>  <SCORE.INTRA>
0

>  <SCORE.INTRA.DIHEDRAL>
0

>  <SCORE.INTRA.DIHEDRAL.0>
0

>  <SCORE.INTRA.POLAR>
0

>  <SCORE.INTRA.POLAR.0>
0

>  <SCORE.INTRA.REPUL>
0

>  <SCORE.INTRA.REPUL.0>
0

>  <SCORE.INTRA.SOLV>
0

>  <SCORE.INTRA.SOLV.lig_0>
-48.1583

>  <SCORE.INTRA.VDW>
0

>  <SCORE.INTRA.VDW.0>
0

>  <SCORE.INTRA.norm>
0

>  <SCORE.RESTR>
0

>  <SCORE.RESTR.CAVITY>
0

>  <SCORE.RESTR.norm>
0

>  <SCORE.SYSTEM>
0

>  <SCORE.SYSTEM.CONST>
0

>  <SCORE.SYSTEM.DIHEDRAL>
0

>  <SCORE.SYSTEM.SOLV>
0

>  <SCORE.SYSTEM.norm>
0

>  <SCORE.heavy>
12

>  <SCORE.norm>
-1.25589

>  <RMSD>
3.070

$$$$
ligand
 OpenBabel11021811503D
libRbt.so/2013.1/901 2013/11/27
 12 13  0  0  0  0  0  0  0  0999 V2000
    4.6484   15.4185    4.0339 C   0  0  0  0  0  0  0  0  0  0  0  0
    5.9617   17.0126    2.9527 C   0  0  0  0  0  0  0  0  0  0  0  0
    3.9708   14.2751    3.9826 N   0  0  0  0  0  0  0  0  0  0  0  0
    6.5668   17.5107    1.8689 N   0  0  0  0  0  0  0  0  0  0  0  0
    5.2533   15.8761    2.9159 N   0  0  0  0  0  0  0  0  0  0  0  0
    4.7438   16.0876    5.2043 N   0  0  0  0  0  0  0  0  0  0  0  0
    6.8763   19.6272    5.4012 N   0  0  0  0  0  0  0  0  0  0  0  0
    6.2391   19.1181    6.5433 C   0  0  0  0  0  0  0  0  0  0  0  0
    5.5042   17.9121    6.4646 N   0  0  0  0  0  0  0  0  0  0  0  0
    5.4404   17.2484    5.2901 C   0  0  0  0  0  0  0  0  0  0  0  0
    6.0793   17.7364    4.1457 C   0  0  0  0  0  0  0  0  0  0  0  0
    6.8033   18.9268    4.1809 C   0  0  0  0  0  0  0  0  0  0  0  0
  1  3  1  0  0  0  0
  1  5  1  0  0  0  0
  1  6  2  0  0  0  0
  2  5  2  0  0  0  0
  2 11  1  0  0  0  0
  2  4  1  0  0  0  0
  6 10  1  0  0  0  0
  7  8  2  0  0  0  0
  7 12  1  0  0  0  0
  8  9  1  0  0  0  0
  9 10  2  0  0  0  0
 10 11  1  0  0  0  0
 11 12  2  0  0  0  0
M  END
>  <CHROM.1>
5.65951605,17.20246383,4.40696712,2.30926282,-0.97161901,-2.00128116

>  <Name>
ligand

>  <RI>
0

>  <Rbt.Current_Directory>
/home/itssahil/PROJECTS/Mol_Feturizer/New_Systems/rnas/4LX5

>  <Rbt.Executable>
rbdock ($Id: //depot/dev/client3/rdock/2013.1/src/exe/rbdock.cxx#4 $)

>  <Rbt.Library>
libRbt.so (2013.1, Build901 2013/11/27)

>  <Rbt.Parameter_File>
/export/apps/rDock/src/rDock_2013.1_src/data/scripts/dock_solv.prm

>  <Rbt.Receptor>
prm/pocket_docking_6.prm

>  <SCORE>
-15.0735

>  <SCORE.INTER>
-15.0735

>  <SCORE.INTER.CONST>
1

>  <SCORE.INTER.POLAR>
0

>  <SCORE.INTER.ROT>
0

>  <SCORE.INTER.SOLV>
15.4048

>  <SCORE.INTER.VDW>
-18.7839

>  <SCORE.INTER.norm>
-1.25612

>  <SCORE.INTRA>
0

>  <SCORE.INTRA.DIHEDRAL>
0

>  <SCORE.INTRA.DIHEDRAL.0>
0

>  <SCORE.INTRA.POLAR>
0

>  <SCORE.INTRA.POLAR.0>
0

>  <SCORE.INTRA.REPUL>
0

>  <SCORE.INTRA.REPUL.0>
0

>  <SCORE.INTRA.SOLV>
0

>  <SCORE.INTRA.SOLV.lig_0>
-48.1583

>  <SCORE.INTRA.VDW>
0

>  <SCORE.INTRA.VDW.0>
0

>  <SCORE.INTRA.norm>
0

>  <SCORE.RESTR>
0

>  <SCORE.RESTR.CAVITY>
0

>  <SCORE.RESTR.norm>
0

>  <SCORE.SYSTEM>
0

>  <SCORE.SYSTEM.CONST>
0

>  <SCORE.SYSTEM.DIHEDRAL>
0

>  <SCORE.SYSTEM.SOLV>
0

>  <SCORE.SYSTEM.norm>
0

>  <SCORE.heavy>
12

>  <SCORE.norm>
-1.25612

>  <RMSD>
3.070

$$$$
ligand
 OpenBabel11021811503D
libRbt.so/2013.1/901 2013/11/27
 12 13  0  0  0  0  0  0  0  0999 V2000
    4.6544   15.4178    4.0339 C   0  0  0  0  0  0  0  0  0  0  0  0
    5.9633   17.0208    2.9606 C   0  0  0  0  0  0  0  0  0  0  0  0
    3.9820   14.2717    3.9777 N   0  0  0  0  0  0  0  0  0  0  0  0
    6.5687   17.5248    1.8797 N   0  0  0  0  0  0  0  0  0  0  0  0
    5.2600   15.8814    2.9188 N   0  0  0  0  0  0  0  0  0  0  0  0
    4.7443   16.0838    5.2065 N   0  0  0  0  0  0  0  0  0  0  0  0
    6.8610   19.6320    5.4190 N   0  0  0  0  0  0  0  0  0  0  0  0
    6.2234   19.1166    6.5581 C   0  0  0  0  0  0  0  0  0  0  0  0
    5.4939   17.9077    6.4740 N   0  0  0  0  0  0  0  0  0  0  0  0
    5.4356   17.2473    5.2975 C   0  0  0  0  0  0  0  0  0  0  0  0
    6.0750   17.7415    4.1560 C   0  0  0  0  0  0  0  0  0  0  0  0
    6.7938   18.9349    4.1964 C   0  0  0  0  0  0  0  0  0  0  0  0
  1  3  1  0  0  0  0
  1  5  1  0  0  0  0
  1  6  2  0  0  0  0
  2  5  2  0  0  0  0
  2 11  1  0  0  0  0
  2  4  1  0  0  0  0
  6 10  1  0  0  0  0
  7  8  2  0  0  0  0
  7 12  1  0  0  0  0
  8  9  1  0  0  0  0
  9 10  2  0  0  0  0
 10 11  1  0  0  0  0
 11 12  2  0  0  0  0
M  END
>  <CHROM.1>
5.65699398,17.20498617,4.41470432,2.30234675,-0.97458471,-2.00399389

>  <Name>
ligand

>  <RI>
0

>  <Rbt.Current_Directory>
/home/itssahil/PROJECTS/Mol_Feturizer/New_Systems/rnas/4LX5

>  <Rbt.Executable>
rbdock ($Id: //depot/dev/client3/rdock/2013.1/src/exe/rbdock.cxx#4 $)

>  <Rbt.Library>
libRbt.so (2013.1, Build901 2013/11/27)

>  <Rbt.Parameter_File>
/export/apps/rDock/src/rDock_2013.1_src/data/scripts/dock_solv.prm

>  <Rbt.Receptor>
prm/pocket_docking_6.prm

>  <SCORE>
-15.0733

>  <SCORE.INTER>
-15.0733

>  <SCORE.INTER.CONST>
1

>  <SCORE.INTER.POLAR>
0

>  <SCORE.INTER.ROT>
0

>  <SCORE.INTER.SOLV>
15.454

>  <SCORE.INTER.VDW>
-18.8002

>  <SCORE.INTER.norm>
-1.25611

>  <SCORE.INTRA>
0

>  <SCORE.INTRA.DIHEDRAL>
0

>  <SCORE.INTRA.DIHEDRAL.0>
0

>  <SCORE.INTRA.POLAR>
0

>  <SCORE.INTRA.POLAR.0>
0

>  <SCORE.INTRA.REPUL>
0

>  <SCORE.INTRA.REPUL.0>
0

>  <SCORE.INTRA.SOLV>
0

>  <SCORE.INTRA.SOLV.lig_0>
-48.1583

>  <SCORE.INTRA.VDW>
0

>  <SCORE.INTRA.VDW.0>
0

>  <SCORE.INTRA.norm>
0

>  <SCORE.RESTR>
0

>  <SCORE.RESTR.CAVITY>
0

>  <SCORE.RESTR.norm>
0

>  <SCORE.SYSTEM>
0

>  <SCORE.SYSTEM.CONST>
0

>  <SCORE.SYSTEM.DIHEDRAL>
0

>  <SCORE.SYSTEM.SOLV>
0

>  <SCORE.SYSTEM.norm>
0

>  <SCORE.heavy>
12

>  <SCORE.norm>
-1.25611

>  <RMSD>
3.070

$$$$
ligand
 OpenBabel11021811503D
libRbt.so/2013.1/901 2013/11/27
 12 13  0  0  0  0  0  0  0  0999 V2000
    4.6469   15.4175    4.0343 C   0  0  0  0  0  0  0  0  0  0  0  0
    5.9591   17.0128    2.9537 C   0  0  0  0  0  0  0  0  0  0  0  0
    3.9699   14.2738    3.9827 N   0  0  0  0  0  0  0  0  0  0  0  0
    6.5636   17.5119    1.8699 N   0  0  0  0  0  0  0  0  0  0  0  0
    5.2512   15.8760    2.9165 N   0  0  0  0  0  0  0  0  0  0  0  0
    4.7423   16.0860    5.2051 N   0  0  0  0  0  0  0  0  0  0  0  0
    6.8731   19.6266    5.4033 N   0  0  0  0  0  0  0  0  0  0  0  0
    6.2366   19.1165    6.5453 C   0  0  0  0  0  0  0  0  0  0  0  0
    5.5022   17.9102    6.4661 N   0  0  0  0  0  0  0  0  0  0  0  0
    5.4384   17.2470    5.2913 C   0  0  0  0  0  0  0  0  0  0  0  0
    6.0766   17.7361    4.1470 C   0  0  0  0  0  0  0  0  0  0  0  0
    6.8001   18.9267    4.1826 C   0  0  0  0  0  0  0  0  0  0  0  0
  1  3  1  0  0  0  0
  1  5  1  0  0  0  0
  1  6  2  0  0  0  0
  2  5  2  0  0  0  0
  2 11  1  0  0  0  0
  2  4  1  0  0  0  0
  6 10  1  0  0  0  0
  7  8  2  0  0  0  0
  7 12  1  0  0  0  0
  8  9  1  0  0  0  0
  9 10  2  0  0  0  0
 10 11  1  0  0  0  0
 11 12  2  0  0  0  0
M  END
>  <CHROM.1>
5.65724569,17.20175149,4.40808689,2.30940053,-0.97220295,-2.00062257

>  <Name>
ligand

>  <RI>
0

>  <Rbt.Current_Directory>
/home/itssahil/PROJECTS/Mol_Feturizer/New_Systems/rnas/4LX5

>  <Rbt.Executable>
rbdock ($Id: //depot/dev/client3/rdock/2013.1/src/exe/rbdock.cxx#4 $)

>  <Rbt.Library>
libRbt.so (2013.1, Build901 2013/11/27)

>  <Rbt.Parameter_File>
/export/apps/rDock/src/rDock_2013.1_src/data/scripts/dock_solv.prm

>  <Rbt.Receptor>
prm/pocket_docking_6.prm

>  <SCORE>
-15.0747

>  <SCORE.INTER>
-15.0747

>  <SCORE.INTER.CONST>
1

>  <SCORE.INTER.POLAR>
0

>  <SCORE.INTER.ROT>
0

>  <SCORE.INTER.SOLV>
15.396

>  <SCORE.INTER.VDW>
-18.7818

>  <SCORE.INTER.norm>
-1.25622

>  <SCORE.INTRA>
0

>  <SCORE.INTRA.DIHEDRAL>
0

>  <SCORE.INTRA.DIHEDRAL.0>
0

>  <SCORE.INTRA.POLAR>
0

>  <SCORE.INTRA.POLAR.0>
0

>  <SCORE.INTRA.REPUL>
0

>  <SCORE.INTRA.REPUL.0>
0

>  <SCORE.INTRA.SOLV>
0

>  <SCORE.INTRA.SOLV.lig_0>
-48.1583

>  <SCORE.INTRA.VDW>
0

>  <SCORE.INTRA.VDW.0>
0

>  <SCORE.INTRA.norm>
0

>  <SCORE.RESTR>
0

>  <SCORE.RESTR.CAVITY>
0

>  <SCORE.RESTR.norm>
0

>  <SCORE.SYSTEM>
0

>  <SCORE.SYSTEM.CONST>
0

>  <SCORE.SYSTEM.DIHEDRAL>
0

>  <SCORE.SYSTEM.SOLV>
0

>  <SCORE.SYSTEM.norm>
0

>  <SCORE.heavy>
12

>  <SCORE.norm>
-1.25622

>  <RMSD>
3.070

$$$$
ligand
 OpenBabel11021811503D
libRbt.so/2013.1/901 2013/11/27
 12 13  0  0  0  0  0  0  0  0999 V2000
    4.6411   15.4137    4.0330 C   0  0  0  0  0  0  0  0  0  0  0  0
    5.9573   17.0032    2.9487 C   0  0  0  0  0  0  0  0  0  0  0  0
    3.9622   14.2710    3.9843 N   0  0  0  0  0  0  0  0  0  0  0  0
    6.5641   17.4977    1.8641 N   0  0  0  0  0  0  0  0  0  0  0  0
    5.2476   15.8675    2.9144 N   0  0  0  0  0  0  0  0  0  0  0  0
    4.7361   16.0860    5.2016 N   0  0  0  0  0  0  0  0  0  0  0  0
    6.8725   19.6236    5.3908 N   0  0  0  0  0  0  0  0  0  0  0  0
    6.2336   19.1185    6.5336 C   0  0  0  0  0  0  0  0  0  0  0  0
    5.4974   17.9131    6.4576 N   0  0  0  0  0  0  0  0  0  0  0  0
    5.4340   17.2462    5.2849 C   0  0  0  0  0  0  0  0  0  0  0  0
    6.0745   17.7303    4.1398 C   0  0  0  0  0  0  0  0  0  0  0  0
    6.7999   18.9199    4.1723 C   0  0  0  0  0  0  0  0  0  0  0  0
  1  3  1  0  0  0  0
  1  5  1  0  0  0  0
  1  6  2  0  0  0  0
  2  5  2  0  0  0  0
  2 11  1  0  0  0  0
  2  4  1  0  0  0  0
  6 10  1  0  0  0  0
  7  8  2  0  0  0  0
  7 12  1  0  0  0  0
  8  9  1  0  0  0  0
  9 10  2  0  0  0  0
 10 11  1  0  0  0  0
 11 12  2  0  0  0  0
M  END
>  <CHROM.1>
5.65391108,17.19755732,4.40211943,2.30853651,-0.97014065,-2.00468185

>  <Name>
ligand

>  <RI>
0

>  <Rbt.Current_Directory>
/home/itssahil/PROJECTS/Mol_Feturizer/New_Systems/rnas/4LX5

>  <Rbt.Executable>
rbdock ($Id: //depot/dev/client3/rdock/2013.1/src/exe/rbdock.cxx#4 $)

>  <Rbt.Library>
libRbt.so (2013.1, Build901 2013/11/27)

>  <Rbt.Parameter_File>
/export/apps/rDock/src/rDock_2013.1_src/data/scripts/dock_solv.prm

>  <Rbt.Receptor>
prm/pocket_docking_7.prm

>  <SCORE>
-15.0725

>  <SCORE.INTER>
-15.0725

>  <SCORE.INTER.CONST>
1

>  <SCORE.INTER.POLAR>
0

>  <SCORE.INTER.ROT>
0

>  <SCORE.INTER.SOLV>
15.3664

>  <SCORE.INTER.VDW>
-18.7705

>  <SCORE.INTER.norm>
-1.25604

>  <SCORE.INTRA>
0

>  <SCORE.INTRA.DIHEDRAL>
0

>  <SCORE.INTRA.DIHEDRAL.0>
0

>  <SCORE.INTRA.POLAR>
0

>  <SCORE.INTRA.POLAR.0>
0

>  <SCORE.INTRA.REPUL>
0

>  <SCORE.INTRA.REPUL.0>
0

>  <SCORE.INTRA.SOLV>
0

>  <SCORE.INTRA.SOLV.lig_0>
-48.1583

>  <SCORE.INTRA.VDW>
0

>  <SCORE.INTRA.VDW.0>
0

>  <SCORE.INTRA.norm>
0

>  <SCORE.RESTR>
0

>  <SCORE.RESTR.CAVITY>
0

>  <SCORE.RESTR.norm>
0

>  <SCORE.SYSTEM>
0

>  <SCORE.SYSTEM.CONST>
0

>  <SCORE.SYSTEM.DIHEDRAL>
0

>  <SCORE.SYSTEM.SOLV>
0

>  <SCORE.SYSTEM.norm>
0

>  <SCORE.heavy>
12

>  <SCORE.norm>
-1.25604

>  <RMSD>
3.070

$$$$
ligand
 OpenBabel11021811503D
libRbt.so/2013.1/901 2013/11/27
 12 13  0  0  0  0  0  0  0  0999 V2000
    4.6560   15.4196    4.0350 C   0  0  0  0  0  0  0  0  0  0  0  0
    5.9678   17.0175    2.9574 C   0  0  0  0  0  0  0  0  0  0  0  0
    3.9808   14.2750    3.9816 N   0  0  0  0  0  0  0  0  0  0  0  0
    6.5734   17.5180    1.8749 N   0  0  0  0  0  0  0  0  0  0  0  0
    5.2617   15.8797    2.9184 N   0  0  0  0  0  0  0  0  0  0  0  0
    4.7485   16.0877    5.2062 N   0  0  0  0  0  0  0  0  0  0  0  0
    6.8737   19.6313    5.4099 N   0  0  0  0  0  0  0  0  0  0  0  0
    6.2360   19.1196    6.5506 C   0  0  0  0  0  0  0  0  0  0  0  0
    5.5035   17.9123    6.4695 N   0  0  0  0  0  0  0  0  0  0  0  0
    5.4427   17.2497    5.2943 C   0  0  0  0  0  0  0  0  0  0  0  0
    6.0822   17.7403    4.1513 C   0  0  0  0  0  0  0  0  0  0  0  0
    6.8038   18.9320    4.1887 C   0  0  0  0  0  0  0  0  0  0  0  0
  1  3  1  0  0  0  0
  1  5  1  0  0  0  0
  1  6  2  0  0  0  0
  2  5  2  0  0  0  0
  2 11  1  0  0  0  0
  2  4  1  0  0  0  0
  6 10  1  0  0  0  0
  7  8  2  0  0  0  0
  7 12  1  0  0  0  0
  8  9  1  0  0  0  0
  9 10  2  0  0  0  0
 10 11  1  0  0  0  0
 11 12  2  0  0  0  0
M  END
>  <CHROM.1>
5.66314234,17.20520562,4.41138531,2.30553885,-0.97282454,-2.00328746

>  <Name>
ligand

>  <RI>
0

>  <Rbt.Current_Directory>
/home/itssahil/PROJECTS/Mol_Feturizer/New_Systems/rnas/4LX5

>  <Rbt.Executable>
rbdock ($Id: //depot/dev/client3/rdock/2013.1/src/exe/rbdock.cxx#4 $)

>  <Rbt.Library>
libRbt.so (2013.1, Build901 2013/11/27)

>  <Rbt.Parameter_File>
/export/apps/rDock/src/rDock_2013.1_src/data/scripts/dock_solv.prm

>  <Rbt.Receptor>
prm/pocket_docking_8.prm

>  <SCORE>
-15.0714

>  <SCORE.INTER>
-15.0714

>  <SCORE.INTER.CONST>
1

>  <SCORE.INTER.POLAR>
0

>  <SCORE.INTER.ROT>
0

>  <SCORE.INTER.SOLV>
15.4568

>  <SCORE.INTER.VDW>
-18.7998

>  <SCORE.INTER.norm>
-1.25595

>  <SCORE.INTRA>
0

>  <SCORE.INTRA.DIHEDRAL>
0

>  <SCORE.INTRA.DIHEDRAL.0>
0

>  <SCORE.INTRA.POLAR>
0

>  <SCORE.INTRA.POLAR.0>
0

>  <SCORE.INTRA.REPUL>
0

>  <SCORE.INTRA.REPUL.0>
0

>  <SCORE.INTRA.SOLV>
0

>  <SCORE.INTRA.SOLV.lig_0>
-48.1583

>  <SCORE.INTRA.VDW>
0

>  <SCORE.INTRA.VDW.0>
0

>  <SCORE.INTRA.norm>
0

>  <SCORE.RESTR>
0

>  <SCORE.RESTR.CAVITY>
0

>  <SCORE.RESTR.norm>
0

>  <SCORE.SYSTEM>
0

>  <SCORE.SYSTEM.CONST>
0

>  <SCORE.SYSTEM.DIHEDRAL>
0

>  <SCORE.SYSTEM.SOLV>
0

>  <SCORE.SYSTEM.norm>
0

>  <SCORE.heavy>
12

>  <SCORE.norm>
-1.25595

>  <RMSD>
3.070

$$$$
ligand
 OpenBabel11021811503D
libRbt.so/2013.1/901 2013/11/27
 12 13  0  0  0  0  0  0  0  0999 V2000
    4.6485   15.4082    4.0372 C   0  0  0  0  0  0  0  0  0  0  0  0
    5.9683   16.9958    2.9544 C   0  0  0  0  0  0  0  0  0  0  0  0
    3.9701   14.2652    3.9884 N   0  0  0  0  0  0  0  0  0  0  0  0
    6.5789   17.4881    1.8710 N   0  0  0  0  0  0  0  0  0  0  0  0
    5.2590   15.8598    2.9199 N   0  0  0  0  0  0  0  0  0  0  0  0
    4.7391   16.0829    5.2048 N   0  0  0  0  0  0  0  0  0  0  0  0
    6.8740   19.6215    5.3943 N   0  0  0  0  0  0  0  0  0  0  0  0
    6.2311   19.1185    6.5359 C   0  0  0  0  0  0  0  0  0  0  0  0
    5.4954   17.9128    6.4597 N   0  0  0  0  0  0  0  0  0  0  0  0
    5.4364   17.2434    5.2882 C   0  0  0  0  0  0  0  0  0  0  0  0
    6.0810   17.7253    4.1444 C   0  0  0  0  0  0  0  0  0  0  0  0
    6.8060   18.9152    4.1771 C   0  0  0  0  0  0  0  0  0  0  0  0
  1  3  1  0  0  0  0
  1  5  1  0  0  0  0
  1  6  2  0  0  0  0
  2  5  2  0  0  0  0
  2 11  1  0  0  0  0
  2  4  1  0  0  0  0
  6 10  1  0  0  0  0
  7  8  2  0  0  0  0
  7 12  1  0  0  0  0
  8  9  1  0  0  0  0
  9 10  2  0  0  0  0
 10 11  1  0  0  0  0
 11 12  2  0  0  0  0
M  END
>  <CHROM.1>
5.65959184,17.19303961,4.40630480,2.30254231,-0.96882344,-2.01169478

>  <Name>
ligand

>  <RI>
0

>  <Rbt.Current_Directory>
/home/itssahil/PROJECTS/Mol_Feturizer/New_Systems/rnas/4LX5

>  <Rbt.Executable>
rbdock ($Id: //depot/dev/client3/rdock/2013.1/src/exe/rbdock.cxx#4 $)

>  <Rbt.Library>
libRbt.so (2013.1, Build901 2013/11/27)

>  <Rbt.Parameter_File>
/export/apps/rDock/src/rDock_2013.1_src/data/scripts/dock_solv.prm

>  <Rbt.Receptor>
prm/pocket_docking_3.prm

>  <SCORE>
-15.0656

>  <SCORE.INTER>
-15.0656

>  <SCORE.INTER.CONST>
1

>  <SCORE.INTER.POLAR>
0

>  <SCORE.INTER.ROT>
0

>  <SCORE.INTER.SOLV>
15.4229

>  <SCORE.INTER.VDW>
-18.7847

>  <SCORE.INTER.norm>
-1.25547

>  <SCORE.INTRA>
0

>  <SCORE.INTRA.DIHEDRAL>
0

>  <SCORE.INTRA.DIHEDRAL.0>
0

>  <SCORE.INTRA.POLAR>
0

>  <SCORE.INTRA.POLAR.0>
0

>  <SCORE.INTRA.REPUL>
0

>  <SCORE.INTRA.REPUL.0>
0

>  <SCORE.INTRA.SOLV>
0

>  <SCORE.INTRA.SOLV.lig_0>
-48.1583

>  <SCORE.INTRA.VDW>
0

>  <SCORE.INTRA.VDW.0>
0

>  <SCORE.INTRA.norm>
0

>  <SCORE.RESTR>
0

>  <SCORE.RESTR.CAVITY>
0

>  <SCORE.RESTR.norm>
0

>  <SCORE.SYSTEM>
0

>  <SCORE.SYSTEM.CONST>
0

>  <SCORE.SYSTEM.DIHEDRAL>
0

>  <SCORE.SYSTEM.SOLV>
0

>  <SCORE.SYSTEM.norm>
0

>  <SCORE.heavy>
12

>  <SCORE.norm>
-1.25547

>  <RMSD>
3.071

$$$$
ligand
 OpenBabel11021811503D
libRbt.so/2013.1/901 2013/11/27
 12 13  0  0  0  0  0  0  0  0999 V2000
    4.6443   15.4389    4.0388 C   0  0  0  0  0  0  0  0  0  0  0  0
    5.9699   17.0244    2.9600 C   0  0  0  0  0  0  0  0  0  0  0  0
    3.9597   14.2998    3.9865 N   0  0  0  0  0  0  0  0  0  0  0  0
    6.5803   17.5184    1.8772 N   0  0  0  0  0  0  0  0  0  0  0  0
    5.2545   15.8924    2.9220 N   0  0  0  0  0  0  0  0  0  0  0  0
    4.7414   16.1079    5.2092 N   0  0  0  0  0  0  0  0  0  0  0  0
    6.8956   19.6341    5.4095 N   0  0  0  0  0  0  0  0  0  0  0  0
    6.2529   19.1293    6.5504 C   0  0  0  0  0  0  0  0  0  0  0  0
    5.5106   17.9279    6.4705 N   0  0  0  0  0  0  0  0  0  0  0  0
    5.4451   17.2642    5.2962 C   0  0  0  0  0  0  0  0  0  0  0  0
    6.0894   17.7479    4.1529 C   0  0  0  0  0  0  0  0  0  0  0  0
    6.8208   18.9337    4.1893 C   0  0  0  0  0  0  0  0  0  0  0  0
  1  3  1  0  0  0  0
  1  5  1  0  0  0  0
  1  6  2  0  0  0  0
  2  5  2  0  0  0  0
  2 11  1  0  0  0  0
  2  4  1  0  0  0  0
  6 10  1  0  0  0  0
  7  8  2  0  0  0  0
  7 12  1  0  0  0  0
  8  9  1  0  0  0  0
  9 10  2  0  0  0  0
 10 11  1  0  0  0  0
 11 12  2  0  0  0  0
M  END
>  <CHROM.1>
5.66579326,17.21667579,4.41349891,2.31047571,-0.96505175,-2.00060806

>  <Name>
ligand

>  <RI>
0

>  <Rbt.Current_Directory>
/home/itssahil/PROJECTS/Mol_Feturizer/New_Systems/rnas/4LX5

>  <Rbt.Executable>
rbdock ($Id: //depot/dev/client3/rdock/2013.1/src/exe/rbdock.cxx#4 $)

>  <Rbt.Library>
libRbt.so (2013.1, Build901 2013/11/27)

>  <Rbt.Parameter_File>
/export/apps/rDock/src/rDock_2013.1_src/data/scripts/dock_solv.prm

>  <Rbt.Receptor>
prm/pocket_docking_3.prm

>  <SCORE>
-15.0532

>  <SCORE.INTER>
-15.0532

>  <SCORE.INTER.CONST>
1

>  <SCORE.INTER.POLAR>
0

>  <SCORE.INTER.ROT>
0

>  <SCORE.INTER.SOLV>
15.3542

>  <SCORE.INTER.VDW>
-18.7535

>  <SCORE.INTER.norm>
-1.25443

>  <SCORE.INTRA>
0

>  <SCORE.INTRA.DIHEDRAL>
0

>  <SCORE.INTRA.DIHEDRAL.0>
0

>  <SCORE.INTRA.POLAR>
0

>  <SCORE.INTRA.POLAR.0>
0

>  <SCORE.INTRA.REPUL>
0

>  <SCORE.INTRA.REPUL.0>
0

>  <SCORE.INTRA.SOLV>
0

>  <SCORE.INTRA.SOLV.lig_0>
-48.1583

>  <SCORE.INTRA.VDW>
0

>  <SCORE.INTRA.VDW.0>
0

>  <SCORE.INTRA.norm>
0

>  <SCORE.RESTR>
0

>  <SCORE.RESTR.CAVITY>
0

>  <SCORE.RESTR.norm>
0

>  <SCORE.SYSTEM>
0

>  <SCORE.SYSTEM.CONST>
0

>  <SCORE.SYSTEM.DIHEDRAL>
0

>  <SCORE.SYSTEM.SOLV>
0

>  <SCORE.SYSTEM.norm>
0

>  <SCORE.heavy>
12

>  <SCORE.norm>
-1.25443

>  <RMSD>
3.071

$$$$
ligand
 OpenBabel11021811503D
libRbt.so/2013.1/901 2013/11/27
 12 13  0  0  0  0  0  0  0  0999 V2000
    4.6453   15.4144    4.0360 C   0  0  0  0  0  0  0  0  0  0  0  0
    5.9603   17.0080    2.9560 C   0  0  0  0  0  0  0  0  0  0  0  0
    3.9684   14.2708    3.9846 N   0  0  0  0  0  0  0  0  0  0  0  0
    6.5674   17.5053    1.8729 N   0  0  0  0  0  0  0  0  0  0  0  0
    5.2524   15.8712    2.9189 N   0  0  0  0  0  0  0  0  0  0  0  0
    4.7380   16.0849    5.2059 N   0  0  0  0  0  0  0  0  0  0  0  0
    6.8686   19.6255    5.4037 N   0  0  0  0  0  0  0  0  0  0  0  0
    6.2293   19.1173    6.5450 C   0  0  0  0  0  0  0  0  0  0  0  0
    5.4950   17.9109    6.4659 N   0  0  0  0  0  0  0  0  0  0  0  0
    5.4339   17.2459    5.2920 C   0  0  0  0  0  0  0  0  0  0  0  0
    6.0750   17.7331    4.1485 C   0  0  0  0  0  0  0  0  0  0  0  0
    6.7985   18.9238    4.1839 C   0  0  0  0  0  0  0  0  0  0  0  0
  1  3  1  0  0  0  0
  1  5  1  0  0  0  0
  1  6  2  0  0  0  0
  2  5  2  0  0  0  0
  2 11  1  0  0  0  0
  2  4  1  0  0  0  0
  6 10  1  0  0  0  0
  7  8  2  0  0  0  0
  7 12  1  0  0  0  0
  8  9  1  0  0  0  0
  9 10  2  0  0  0  0
 10 11  1  0  0  0  0
 11 12  2  0  0  0  0
M  END
>  <CHROM.1>
5.65495694,17.19923713,4.40940789,2.30557848,-0.97110813,-2.00535404

>  <Name>
ligand

>  <RI>
0

>  <Rbt.Current_Directory>
/home/itssahil/PROJECTS/Mol_Feturizer/New_Systems/rnas/4LX5

>  <Rbt.Executable>
rbdock ($Id: //depot/dev/client3/rdock/2013.1/src/exe/rbdock.cxx#4 $)

>  <Rbt.Library>
libRbt.so (2013.1, Build901 2013/11/27)

>  <Rbt.Parameter_File>
/export/apps/rDock/src/rDock_2013.1_src/data/scripts/dock_solv.prm

>  <Rbt.Receptor>
prm/pocket_docking_5.prm

>  <SCORE>
-15.0705

>  <SCORE.INTER>
-15.0705

>  <SCORE.INTER.CONST>
1

>  <SCORE.INTER.POLAR>
0

>  <SCORE.INTER.ROT>
0

>  <SCORE.INTER.SOLV>
15.3944

>  <SCORE.INTER.VDW>
-18.7785

>  <SCORE.INTER.norm>
-1.25587

>  <SCORE.INTRA>
0

>  <SCORE.INTRA.DIHEDRAL>
0

>  <SCORE.INTRA.DIHEDRAL.0>
0

>  <SCORE.INTRA.POLAR>
0

>  <SCORE.INTRA.POLAR.0>
0

>  <SCORE.INTRA.REPUL>
0

>  <SCORE.INTRA.REPUL.0>
0

>  <SCORE.INTRA.SOLV>
0

>  <SCORE.INTRA.SOLV.lig_0>
-48.1583

>  <SCORE.INTRA.VDW>
0

>  <SCORE.INTRA.VDW.0>
0

>  <SCORE.INTRA.norm>
0

>  <SCORE.RESTR>
0

>  <SCORE.RESTR.CAVITY>
0

>  <SCORE.RESTR.norm>
0

>  <SCORE.SYSTEM>
0

>  <SCORE.SYSTEM.CONST>
0

>  <SCORE.SYSTEM.DIHEDRAL>
0

>  <SCORE.SYSTEM.SOLV>
0

>  <SCORE.SYSTEM.norm>
0

>  <SCORE.heavy>
12

>  <SCORE.norm>
-1.25587

>  <RMSD>
3.071

$$$$
ligand
 OpenBabel11021811503D
libRbt.so/2013.1/901 2013/11/27
 12 13  0  0  0  0  0  0  0  0999 V2000
    4.6457   15.4184    4.0389 C   0  0  0  0  0  0  0  0  0  0  0  0
    5.9586   17.0126    2.9574 C   0  0  0  0  0  0  0  0  0  0  0  0
    3.9675   14.2754    3.9877 N   0  0  0  0  0  0  0  0  0  0  0  0
    6.5626   17.5112    1.8732 N   0  0  0  0  0  0  0  0  0  0  0  0
    5.2495   15.8765    2.9206 N   0  0  0  0  0  0  0  0  0  0  0  0
    4.7428   16.0867    5.2097 N   0  0  0  0  0  0  0  0  0  0  0  0
    6.8773   19.6250    5.4066 N   0  0  0  0  0  0  0  0  0  0  0  0
    6.2412   19.1154    6.5491 C   0  0  0  0  0  0  0  0  0  0  0  0
    5.5056   17.9098    6.4704 N   0  0  0  0  0  0  0  0  0  0  0  0
    5.4401   17.2470    5.2956 C   0  0  0  0  0  0  0  0  0  0  0  0
    6.0779   17.7355    4.1507 C   0  0  0  0  0  0  0  0  0  0  0  0
    6.8025   18.9254    4.1859 C   0  0  0  0  0  0  0  0  0  0  0  0
  1  3  1  0  0  0  0
  1  5  1  0  0  0  0
  1  6  2  0  0  0  0
  2  5  2  0  0  0  0
  2 11  1  0  0  0  0
  2  4  1  0  0  0  0
  6 10  1  0  0  0  0
  7  8  2  0  0  0  0
  7 12  1  0  0  0  0
  8  9  1  0  0  0  0
  9 10  2  0  0  0  0
 10 11  1  0  0  0  0
 11 12  2  0  0  0  0
M  END
>  <CHROM.1>
5.65816088,17.20158538,4.41212228,2.31152452,-0.97163424,-1.99870932

>  <Name>
ligand

>  <RI>
0

>  <Rbt.Current_Directory>
/home/itssahil/PROJECTS/Mol_Feturizer/New_Systems/rnas/4LX5

>  <Rbt.Executable>
rbdock ($Id: //depot/dev/client3/rdock/2013.1/src/exe/rbdock.cxx#4 $)

>  <Rbt.Library>
libRbt.so (2013.1, Build901 2013/11/27)

>  <Rbt.Parameter_File>
/export/apps/rDock/src/rDock_2013.1_src/data/scripts/dock_solv.prm

>  <Rbt.Receptor>
prm/blind_docking_40.prm

>  <SCORE>
-15.0698

>  <SCORE.INTER>
-15.0698

>  <SCORE.INTER.CONST>
1

>  <SCORE.INTER.POLAR>
0

>  <SCORE.INTER.ROT>
0

>  <SCORE.INTER.SOLV>
15.3821

>  <SCORE.INTER.VDW>
-18.7739

>  <SCORE.INTER.norm>
-1.25582

>  <SCORE.INTRA>
0

>  <SCORE.INTRA.DIHEDRAL>
0

>  <SCORE.INTRA.DIHEDRAL.0>
0

>  <SCORE.INTRA.POLAR>
0

>  <SCORE.INTRA.POLAR.0>
0

>  <SCORE.INTRA.REPUL>
0

>  <SCORE.INTRA.REPUL.0>
0

>  <SCORE.INTRA.SOLV>
0

>  <SCORE.INTRA.SOLV.lig_0>
-48.1583

>  <SCORE.INTRA.VDW>
0

>  <SCORE.INTRA.VDW.0>
0

>  <SCORE.INTRA.norm>
0

>  <SCORE.RESTR>
0

>  <SCORE.RESTR.CAVITY>
0

>  <SCORE.RESTR.norm>
0

>  <SCORE.SYSTEM>
0

>  <SCORE.SYSTEM.CONST>
0

>  <SCORE.SYSTEM.DIHEDRAL>
0

>  <SCORE.SYSTEM.SOLV>
0

>  <SCORE.SYSTEM.norm>
0

>  <SCORE.heavy>
12

>  <SCORE.norm>
-1.25582

>  <RMSD>
3.072

$$$$
ligand
 OpenBabel11021811503D
libRbt.so/2013.1/901 2013/11/27
 12 13  0  0  0  0  0  0  0  0999 V2000
    4.6438   15.4248    4.0384 C   0  0  0  0  0  0  0  0  0  0  0  0
    5.9571   17.0211    2.9604 C   0  0  0  0  0  0  0  0  0  0  0  0
    3.9651   14.2823    3.9845 N   0  0  0  0  0  0  0  0  0  0  0  0
    6.5611   17.5221    1.8773 N   0  0  0  0  0  0  0  0  0  0  0  0
    5.2475   15.8855    2.9210 N   0  0  0  0  0  0  0  0  0  0  0  0
    4.7416   16.0901    5.2107 N   0  0  0  0  0  0  0  0  0  0  0  0
    6.8778   19.6270    5.4159 N   0  0  0  0  0  0  0  0  0  0  0  0
    6.2418   19.1148    6.5572 C   0  0  0  0  0  0  0  0  0  0  0  0
    5.5056   17.9098    6.4757 N   0  0  0  0  0  0  0  0  0  0  0  0
    5.4394   17.2499    5.2993 C   0  0  0  0  0  0  0  0  0  0  0  0
    6.0771   17.7410    4.1555 C   0  0  0  0  0  0  0  0  0  0  0  0
    6.8023   18.9305    4.1934 C   0  0  0  0  0  0  0  0  0  0  0  0
  1  3  1  0  0  0  0
  1  5  1  0  0  0  0
  1  6  2  0  0  0  0
  2  5  2  0  0  0  0
  2 11  1  0  0  0  0
  2  4  1  0  0  0  0
  6 10  1  0  0  0  0
  7  8  2  0  0  0  0
  7 12  1  0  0  0  0
  8  9  1  0  0  0  0
  9 10  2  0  0  0  0
 10 11  1  0  0  0  0
 11 12  2  0  0  0  0
M  END
>  <CHROM.1>
5.65722063,17.20662174,4.41567125,2.31235161,-0.97134045,-1.99553389

>  <Name>
ligand

>  <RI>
0

>  <Rbt.Current_Directory>
/home/itssahil/PROJECTS/Mol_Feturizer/New_Systems/rnas/4LX5

>  <Rbt.Executable>
rbdock ($Id: //depot/dev/client3/rdock/2013.1/src/exe/rbdock.cxx#4 $)

>  <Rbt.Library>
libRbt.so (2013.1, Build901 2013/11/27)

>  <Rbt.Parameter_File>
/export/apps/rDock/src/rDock_2013.1_src/data/scripts/dock_solv.prm

>  <Rbt.Receptor>
prm/pocket_docking_3.prm

>  <SCORE>
-15.0693

>  <SCORE.INTER>
-15.0693

>  <SCORE.INTER.CONST>
1

>  <SCORE.INTER.POLAR>
0

>  <SCORE.INTER.ROT>
0

>  <SCORE.INTER.SOLV>
15.3609

>  <SCORE.INTER.VDW>
-18.7665

>  <SCORE.INTER.norm>
-1.25577

>  <SCORE.INTRA>
0

>  <SCORE.INTRA.DIHEDRAL>
0

>  <SCORE.INTRA.DIHEDRAL.0>
0

>  <SCORE.INTRA.POLAR>
0

>  <SCORE.INTRA.POLAR.0>
0

>  <SCORE.INTRA.REPUL>
0

>  <SCORE.INTRA.REPUL.0>
0

>  <SCORE.INTRA.SOLV>
0

>  <SCORE.INTRA.SOLV.lig_0>
-48.1583

>  <SCORE.INTRA.VDW>
0

>  <SCORE.INTRA.VDW.0>
0

>  <SCORE.INTRA.norm>
0

>  <SCORE.RESTR>
0

>  <SCORE.RESTR.CAVITY>
0

>  <SCORE.RESTR.norm>
0

>  <SCORE.SYSTEM>
0

>  <SCORE.SYSTEM.CONST>
0

>  <SCORE.SYSTEM.DIHEDRAL>
0

>  <SCORE.SYSTEM.SOLV>
0

>  <SCORE.SYSTEM.norm>
0

>  <SCORE.heavy>
12

>  <SCORE.norm>
-1.25577

>  <RMSD>
3.072

$$$$
ligand
 OpenBabel11021811503D
libRbt.so/2013.1/901 2013/11/27
 12 13  0  0  0  0  0  0  0  0999 V2000
    4.6406   15.4160    4.0392 C   0  0  0  0  0  0  0  0  0  0  0  0
    5.9532   17.0138    2.9625 C   0  0  0  0  0  0  0  0  0  0  0  0
    3.9658   14.2712    3.9855 N   0  0  0  0  0  0  0  0  0  0  0  0
    6.5600   17.5140    1.8806 N   0  0  0  0  0  0  0  0  0  0  0  0
    5.2475   15.8758    2.9231 N   0  0  0  0  0  0  0  0  0  0  0  0
    4.7314   16.0847    5.2102 N   0  0  0  0  0  0  0  0  0  0  0  0
    6.8553   19.6290    5.4150 N   0  0  0  0  0  0  0  0  0  0  0  0
    6.2163   19.1177    6.5551 C   0  0  0  0  0  0  0  0  0  0  0  0
    5.4843   17.9101    6.4736 N   0  0  0  0  0  0  0  0  0  0  0  0
    5.4251   17.2470    5.2986 C   0  0  0  0  0  0  0  0  0  0  0  0
    6.0659   17.7372    4.1562 C   0  0  0  0  0  0  0  0  0  0  0  0
    6.7871   18.9291    4.1940 C   0  0  0  0  0  0  0  0  0  0  0  0
  1  3  1  0  0  0  0
  1  5  1  0  0  0  0
  1  6  2  0  0  0  0
  2  5  2  0  0  0  0
  2 11  1  0  0  0  0
  2  4  1  0  0  0  0
  6 10  1  0  0  0  0
  7  8  2  0  0  0  0
  7 12  1  0  0  0  0
  8  9  1  0  0  0  0
  9 10  2  0  0  0  0
 10 11  1  0  0  0  0
 11 12  2  0  0  0  0
M  END
>  <CHROM.1>
5.64670250,17.20211434,4.41604603,2.30330663,-0.97258190,-2.00558720

>  <Name>
ligand

>  <RI>
0

>  <Rbt.Current_Directory>
/home/itssahil/PROJECTS/Mol_Feturizer/New_Systems/rnas/4LX5

>  <Rbt.Executable>
rbdock ($Id: //depot/dev/client3/rdock/2013.1/src/exe/rbdock.cxx#4 $)

>  <Rbt.Library>
libRbt.so (2013.1, Build901 2013/11/27)

>  <Rbt.Parameter_File>
/export/apps/rDock/src/rDock_2013.1_src/data/scripts/dock_solv.prm

>  <Rbt.Receptor>
prm/blind_docking_80.prm

>  <SCORE>
-15.0635

>  <SCORE.INTER>
-15.0635

>  <SCORE.INTER.CONST>
1

>  <SCORE.INTER.POLAR>
0

>  <SCORE.INTER.ROT>
0

>  <SCORE.INTER.SOLV>
15.3694

>  <SCORE.INTER.VDW>
-18.7655

>  <SCORE.INTER.norm>
-1.25529

>  <SCORE.INTRA>
0

>  <SCORE.INTRA.DIHEDRAL>
0

>  <SCORE.INTRA.DIHEDRAL.0>
0

>  <SCORE.INTRA.POLAR>
0

>  <SCORE.INTRA.POLAR.0>
0

>  <SCORE.INTRA.REPUL>
0

>  <SCORE.INTRA.REPUL.0>
0

>  <SCORE.INTRA.SOLV>
0

>  <SCORE.INTRA.SOLV.lig_0>
-48.1583

>  <SCORE.INTRA.VDW>
0

>  <SCORE.INTRA.VDW.0>
0

>  <SCORE.INTRA.norm>
0

>  <SCORE.RESTR>
0

>  <SCORE.RESTR.CAVITY>
0

>  <SCORE.RESTR.norm>
0

>  <SCORE.SYSTEM>
0

>  <SCORE.SYSTEM.CONST>
0

>  <SCORE.SYSTEM.DIHEDRAL>
0

>  <SCORE.SYSTEM.SOLV>
0

>  <SCORE.SYSTEM.norm>
0

>  <SCORE.heavy>
12

>  <SCORE.norm>
-1.25529

>  <RMSD>
3.073

$$$$
ligand
 OpenBabel11021811503D
libRbt.so/2013.1/901 2013/11/27
 12 13  0  0  0  0  0  0  0  0999 V2000
    4.3701   15.7129    3.9737 C   0  0  0  0  0  0  0  0  0  0  0  0
    5.9215   17.0999    2.9227 C   0  0  0  0  0  0  0  0  0  0  0  0
    3.5205   14.6923    3.9008 N   0  0  0  0  0  0  0  0  0  0  0  0
    6.6001   17.5169    1.8483 N   0  0  0  0  0  0  0  0  0  0  0  0
    5.0424   16.0907    2.8644 N   0  0  0  0  0  0  0  0  0  0  0  0
    4.5675   16.3357    5.1568 N   0  0  0  0  0  0  0  0  0  0  0  0
    7.2324   19.4891    5.4209 N   0  0  0  0  0  0  0  0  0  0  0  0
    6.5202   19.0651    6.5534 C   0  0  0  0  0  0  0  0  0  0  0  0
    5.6040   17.9923    6.4518 N   0  0  0  0  0  0  0  0  0  0  0  0
    5.4387   17.3698    5.2647 C   0  0  0  0  0  0  0  0  0  0  0  0
    6.1493   17.7728    4.1295 C   0  0  0  0  0  0  0  0  0  0  0  0
    7.0523   18.8327    4.1872 C   0  0  0  0  0  0  0  0  0  0  0  0
  1  3  1  0  0  0  0
  1  5  1  0  0  0  0
  1  6  2  0  0  0  0
  2  5  2  0  0  0  0
  2 11  1  0  0  0  0
  2  4  1  0  0  0  0
  6 10  1  0  0  0  0
  7  8  2  0  0  0  0
  7 12  1  0  0  0  0
  8  9  1  0  0  0  0
  9 10  2  0  0  0  0
 10 11  1  0  0  0  0
 11 12  2  0  0  0  0
M  END
>  <CHROM.1>
5.64981009,17.30695166,4.38064727,2.40352285,-0.82394971,-1.90781622

>  <Name>
ligand

>  <RI>
0

>  <Rbt.Current_Directory>
/home/itssahil/PROJECTS/Mol_Feturizer/New_Systems/rnas/4LX5

>  <Rbt.Executable>
rbdock ($Id: //depot/dev/client3/rdock/2013.1/src/exe/rbdock.cxx#4 $)

>  <Rbt.Library>
libRbt.so (2013.1, Build901 2013/11/27)

>  <Rbt.Parameter_File>
/export/apps/rDock/src/rDock_2013.1_src/data/scripts/dock_solv.prm

>  <Rbt.Receptor>
prm/pocket_docking_3.prm

>  <SCORE>
-14.4248

>  <SCORE.INTER>
-14.4248

>  <SCORE.INTER.CONST>
1

>  <SCORE.INTER.POLAR>
0

>  <SCORE.INTER.ROT>
0

>  <SCORE.INTER.SOLV>
13.4532

>  <SCORE.INTER.VDW>
-17.7009

>  <SCORE.INTER.norm>
-1.20206

>  <SCORE.INTRA>
0

>  <SCORE.INTRA.DIHEDRAL>
0

>  <SCORE.INTRA.DIHEDRAL.0>
0

>  <SCORE.INTRA.POLAR>
0

>  <SCORE.INTRA.POLAR.0>
0

>  <SCORE.INTRA.REPUL>
0

>  <SCORE.INTRA.REPUL.0>
0

>  <SCORE.INTRA.SOLV>
0

>  <SCORE.INTRA.SOLV.lig_0>
-48.1583

>  <SCORE.INTRA.VDW>
0

>  <SCORE.INTRA.VDW.0>
0

>  <SCORE.INTRA.norm>
0

>  <SCORE.RESTR>
0

>  <SCORE.RESTR.CAVITY>
0

>  <SCORE.RESTR.norm>
0

>  <SCORE.SYSTEM>
0

>  <SCORE.SYSTEM.CONST>
0

>  <SCORE.SYSTEM.DIHEDRAL>
0

>  <SCORE.SYSTEM.SOLV>
0

>  <SCORE.SYSTEM.norm>
0

>  <SCORE.heavy>
12

>  <SCORE.norm>
-1.20206

>  <RMSD>
3.073

$$$$
ligand
 OpenBabel11021811503D
libRbt.so/2013.1/901 2013/11/27
 12 13  0  0  0  0  0  0  0  0999 V2000
    4.6396   15.4023    4.0356 C   0  0  0  0  0  0  0  0  0  0  0  0
    5.9648   16.9885    2.9572 C   0  0  0  0  0  0  0  0  0  0  0  0
    3.9622   14.2589    3.9852 N   0  0  0  0  0  0  0  0  0  0  0  0
    6.5812   17.4790    1.8763 N   0  0  0  0  0  0  0  0  0  0  0  0
    5.2563   15.8521    2.9209 N   0  0  0  0  0  0  0  0  0  0  0  0
    4.7231   16.0795    5.2022 N   0  0  0  0  0  0  0  0  0  0  0  0
    6.8549   19.6196    5.3969 N   0  0  0  0  0  0  0  0  0  0  0  0
    6.2058   19.1186    6.5358 C   0  0  0  0  0  0  0  0  0  0  0  0
    5.4712   17.9123    6.4578 N   0  0  0  0  0  0  0  0  0  0  0  0
    5.4193   17.2405    5.2873 C   0  0  0  0  0  0  0  0  0  0  0  0
    6.0702   17.7205    4.1463 C   0  0  0  0  0  0  0  0  0  0  0  0
    6.7943   18.9108    4.1808 C   0  0  0  0  0  0  0  0  0  0  0  0
  1  3  1  0  0  0  0
  1  5  1  0  0  0  0
  1  6  2  0  0  0  0
  2  5  2  0  0  0  0
  2 11  1  0  0  0  0
  2  4  1  0  0  0  0
  6 10  1  0  0  0  0
  7  8  2  0  0  0  0
  7 12  1  0  0  0  0
  8  9  1  0  0  0  0
  9 10  2  0  0  0  0
 10 11  1  0  0  0  0
 11 12  2  0  0  0  0
M  END
>  <CHROM.1>
5.64755132,17.18849545,4.40685024,2.29296479,-0.96685232,-2.02160601

>  <Name>
ligand

>  <RI>
0

>  <Rbt.Current_Directory>
/home/itssahil/PROJECTS/Mol_Feturizer/New_Systems/rnas/4LX5

>  <Rbt.Executable>
rbdock ($Id: //depot/dev/client3/rdock/2013.1/src/exe/rbdock.cxx#4 $)

>  <Rbt.Library>
libRbt.so (2013.1, Build901 2013/11/27)

>  <Rbt.Parameter_File>
/export/apps/rDock/src/rDock_2013.1_src/data/scripts/dock_solv.prm

>  <Rbt.Receptor>
prm/pocket_docking_5.prm

>  <SCORE>
-15.0133

>  <SCORE.INTER>
-15.0133

>  <SCORE.INTER.CONST>
1

>  <SCORE.INTER.POLAR>
0

>  <SCORE.INTER.ROT>
0

>  <SCORE.INTER.SOLV>
15.389

>  <SCORE.INTER.VDW>
-18.7386

>  <SCORE.INTER.norm>
-1.25111

>  <SCORE.INTRA>
0

>  <SCORE.INTRA.DIHEDRAL>
0

>  <SCORE.INTRA.DIHEDRAL.0>
0

>  <SCORE.INTRA.POLAR>
0

>  <SCORE.INTRA.POLAR.0>
0

>  <SCORE.INTRA.REPUL>
0

>  <SCORE.INTRA.REPUL.0>
0

>  <SCORE.INTRA.SOLV>
0

>  <SCORE.INTRA.SOLV.lig_0>
-48.1583

>  <SCORE.INTRA.VDW>
0

>  <SCORE.INTRA.VDW.0>
0

>  <SCORE.INTRA.norm>
0

>  <SCORE.RESTR>
0

>  <SCORE.RESTR.CAVITY>
0

>  <SCORE.RESTR.norm>
0

>  <SCORE.SYSTEM>
0

>  <SCORE.SYSTEM.CONST>
0

>  <SCORE.SYSTEM.DIHEDRAL>
0

>  <SCORE.SYSTEM.SOLV>
0

>  <SCORE.SYSTEM.norm>
0

>  <SCORE.heavy>
12

>  <SCORE.norm>
-1.25111

>  <RMSD>
3.073

$$$$
ligand
 OpenBabel11021811503D
libRbt.so/2013.1/901 2013/11/27
 12 13  0  0  0  0  0  0  0  0999 V2000
    4.6344   15.4111    4.0360 C   0  0  0  0  0  0  0  0  0  0  0  0
    5.9568   17.0013    2.9601 C   0  0  0  0  0  0  0  0  0  0  0  0
    3.9604   14.2657    3.9843 N   0  0  0  0  0  0  0  0  0  0  0  0
    6.5737   17.4937    1.8803 N   0  0  0  0  0  0  0  0  0  0  0  0
    5.2517   15.8628    2.9224 N   0  0  0  0  0  0  0  0  0  0  0  0
    4.7140   16.0884    5.2029 N   0  0  0  0  0  0  0  0  0  0  0  0
    6.8352   19.6346    5.4017 N   0  0  0  0  0  0  0  0  0  0  0  0
    6.1855   19.1315    6.5395 C   0  0  0  0  0  0  0  0  0  0  0  0
    5.4546   17.9232    6.4600 N   0  0  0  0  0  0  0  0  0  0  0  0
    5.4066   17.2514    5.2894 C   0  0  0  0  0  0  0  0  0  0  0  0
    6.0581   17.7334    4.1495 C   0  0  0  0  0  0  0  0  0  0  0  0
    6.7786   18.9258    4.1854 C   0  0  0  0  0  0  0  0  0  0  0  0
  1  3  1  0  0  0  0
  1  5  1  0  0  0  0
  1  6  2  0  0  0  0
  2  5  2  0  0  0  0
  2 11  1  0  0  0  0
  2  4  1  0  0  0  0
  6 10  1  0  0  0  0
  7  8  2  0  0  0  0
  7 12  1  0  0  0  0
  8  9  1  0  0  0  0
  9 10  2  0  0  0  0
 10 11  1  0  0  0  0
 11 12  2  0  0  0  0
M  END
>  <CHROM.1>
5.63653769,17.20016930,4.40925989,2.28802528,-0.96872337,-2.02553165

>  <Name>
ligand

>  <RI>
0

>  <Rbt.Current_Directory>
/home/itssahil/PROJECTS/Mol_Feturizer/New_Systems/rnas/4LX5

>  <Rbt.Executable>
rbdock ($Id: //depot/dev/client3/rdock/2013.1/src/exe/rbdock.cxx#4 $)

>  <Rbt.Library>
libRbt.so (2013.1, Build901 2013/11/27)

>  <Rbt.Parameter_File>
/export/apps/rDock/src/rDock_2013.1_src/data/scripts/dock_solv.prm

>  <Rbt.Receptor>
prm/pocket_docking_6.prm

>  <SCORE>
-15.0272

>  <SCORE.INTER>
-15.0272

>  <SCORE.INTER.CONST>
1

>  <SCORE.INTER.POLAR>
0

>  <SCORE.INTER.ROT>
0

>  <SCORE.INTER.SOLV>
15.3686

>  <SCORE.INTER.VDW>
-18.741

>  <SCORE.INTER.norm>
-1.25227

>  <SCORE.INTRA>
0

>  <SCORE.INTRA.DIHEDRAL>
0

>  <SCORE.INTRA.DIHEDRAL.0>
0

>  <SCORE.INTRA.POLAR>
0

>  <SCORE.INTRA.POLAR.0>
0

>  <SCORE.INTRA.REPUL>
0

>  <SCORE.INTRA.REPUL.0>
0

>  <SCORE.INTRA.SOLV>
0

>  <SCORE.INTRA.SOLV.lig_0>
-48.1583

>  <SCORE.INTRA.VDW>
0

>  <SCORE.INTRA.VDW.0>
0

>  <SCORE.INTRA.norm>
0

>  <SCORE.RESTR>
0

>  <SCORE.RESTR.CAVITY>
0

>  <SCORE.RESTR.norm>
0

>  <SCORE.SYSTEM>
0

>  <SCORE.SYSTEM.CONST>
0

>  <SCORE.SYSTEM.DIHEDRAL>
0

>  <SCORE.SYSTEM.SOLV>
0

>  <SCORE.SYSTEM.norm>
0

>  <SCORE.heavy>
12

>  <SCORE.norm>
-1.25227

>  <RMSD>
3.073

$$$$
ligand
 OpenBabel11021811503D
libRbt.so/2013.1/901 2013/11/27
 12 13  0  0  0  0  0  0  0  0999 V2000
    4.3418   15.2397    3.8415 C   0  0  0  0  0  0  0  0  0  0  0  0
    5.6177   16.8230    2.7011 C   0  0  0  0  0  0  0  0  0  0  0  0
    3.5958   14.1392    3.8088 N   0  0  0  0  0  0  0  0  0  0  0  0
    6.1252   17.3517    1.5822 N   0  0  0  0  0  0  0  0  0  0  0  0
    4.8430   15.7301    2.6867 N   0  0  0  0  0  0  0  0  0  0  0  0
    4.6084   15.8323    5.0266 N   0  0  0  0  0  0  0  0  0  0  0  0
    6.9570   19.2353    5.1616 N   0  0  0  0  0  0  0  0  0  0  0  0
    6.4236   18.6939    6.3414 C   0  0  0  0  0  0  0  0  0  0  0  0
    5.6138   17.5356    6.2848 N   0  0  0  0  0  0  0  0  0  0  0  0
    5.3783   16.9471    5.0923 C   0  0  0  0  0  0  0  0  0  0  0  0
    5.9120   17.4675    3.9089 C   0  0  0  0  0  0  0  0  0  0  0  0
    6.7051   18.6134    3.9227 C   0  0  0  0  0  0  0  0  0  0  0  0
  1  3  1  0  0  0  0
  1  5  1  0  0  0  0
  1  6  2  0  0  0  0
  2  5  2  0  0  0  0
  2 11  1  0  0  0  0
  2  4  1  0  0  0  0
  6 10  1  0  0  0  0
  7  8  2  0  0  0  0
  7 12  1  0  0  0  0
  8  9  1  0  0  0  0
  9 10  2  0  0  0  0
 10 11  1  0  0  0  0
 11 12  2  0  0  0  0
M  END
>  <CHROM.1>
5.49331346,16.94207498,4.18850331,2.53099784,-0.95272507,-1.76275837

>  <Name>
ligand

>  <RI>
0

>  <Rbt.Current_Directory>
/home/itssahil/PROJECTS/Mol_Feturizer/New_Systems/rnas/4LX5

>  <Rbt.Executable>
rbdock ($Id: //depot/dev/client3/rdock/2013.1/src/exe/rbdock.cxx#4 $)

>  <Rbt.Library>
libRbt.so (2013.1, Build901 2013/11/27)

>  <Rbt.Parameter_File>
/export/apps/rDock/src/rDock_2013.1_src/data/scripts/dock_solv.prm

>  <Rbt.Receptor>
prm/pocket_docking_8.prm

>  <SCORE>
-14.1445

>  <SCORE.INTER>
-14.1445

>  <SCORE.INTER.CONST>
1

>  <SCORE.INTER.POLAR>
0

>  <SCORE.INTER.ROT>
0

>  <SCORE.INTER.SOLV>
13.4558

>  <SCORE.INTER.VDW>
-17.5149

>  <SCORE.INTER.norm>
-1.17871

>  <SCORE.INTRA>
0

>  <SCORE.INTRA.DIHEDRAL>
0

>  <SCORE.INTRA.DIHEDRAL.0>
0

>  <SCORE.INTRA.POLAR>
0

>  <SCORE.INTRA.POLAR.0>
0

>  <SCORE.INTRA.REPUL>
0

>  <SCORE.INTRA.REPUL.0>
0

>  <SCORE.INTRA.SOLV>
0

>  <SCORE.INTRA.SOLV.lig_0>
-48.1583

>  <SCORE.INTRA.VDW>
0

>  <SCORE.INTRA.VDW.0>
0

>  <SCORE.INTRA.norm>
0

>  <SCORE.RESTR>
0

>  <SCORE.RESTR.CAVITY>
0

>  <SCORE.RESTR.norm>
0

>  <SCORE.SYSTEM>
0

>  <SCORE.SYSTEM.CONST>
0

>  <SCORE.SYSTEM.DIHEDRAL>
0

>  <SCORE.SYSTEM.SOLV>
0

>  <SCORE.SYSTEM.norm>
0

>  <SCORE.heavy>
12

>  <SCORE.norm>
-1.17871

>  <RMSD>
3.073

$$$$
ligand
 OpenBabel11021811503D
libRbt.so/2013.1/901 2013/11/27
 12 13  0  0  0  0  0  0  0  0999 V2000
    4.6406   15.4016    4.0461 C   0  0  0  0  0  0  0  0  0  0  0  0
    5.9702   16.9763    2.9563 C   0  0  0  0  0  0  0  0  0  0  0  0
    3.9580   14.2610    4.0033 N   0  0  0  0  0  0  0  0  0  0  0  0
    6.5862   17.4585    1.8714 N   0  0  0  0  0  0  0  0  0  0  0  0
    5.2566   15.8429    2.9276 N   0  0  0  0  0  0  0  0  0  0  0  0
    4.7301   16.0844    5.2091 N   0  0  0  0  0  0  0  0  0  0  0  0
    6.8782   19.6159    5.3803 N   0  0  0  0  0  0  0  0  0  0  0  0
    6.2296   19.1236    6.5233 C   0  0  0  0  0  0  0  0  0  0  0  0
    5.4895   17.9203    6.4533 N   0  0  0  0  0  0  0  0  0  0  0  0
    5.4316   17.2428    5.2865 C   0  0  0  0  0  0  0  0  0  0  0  0
    6.0819   17.7139    4.1414 C   0  0  0  0  0  0  0  0  0  0  0  0
    6.8114   18.9011    4.1679 C   0  0  0  0  0  0  0  0  0  0  0  0
  1  3  1  0  0  0  0
  1  5  1  0  0  0  0
  1  6  2  0  0  0  0
  2  5  2  0  0  0  0
  2 11  1  0  0  0  0
  2  4  1  0  0  0  0
  6 10  1  0  0  0  0
  7  8  2  0  0  0  0
  7 12  1  0  0  0  0
  8  9  1  0  0  0  0
  9 10  2  0  0  0  0
 10 11  1  0  0  0  0
 11 12  2  0  0  0  0
M  END
>  <CHROM.1>
5.65749082,17.18517146,4.40570170,2.30030008,-0.96389882,-2.02071123

>  <Name>
ligand

>  <RI>
0

>  <Rbt.Current_Directory>
/home/itssahil/PROJECTS/Mol_Feturizer/New_Systems/rnas/4LX5

>  <Rbt.Executable>
rbdock ($Id: //depot/dev/client3/rdock/2013.1/src/exe/rbdock.cxx#4 $)

>  <Rbt.Library>
libRbt.so (2013.1, Build901 2013/11/27)

>  <Rbt.Parameter_File>
/export/apps/rDock/src/rDock_2013.1_src/data/scripts/dock_solv.prm

>  <Rbt.Receptor>
prm/pocket_docking_4.prm

>  <SCORE>
-15.0741

>  <SCORE.INTER>
-15.0741

>  <SCORE.INTER.CONST>
1

>  <SCORE.INTER.POLAR>
0

>  <SCORE.INTER.ROT>
0

>  <SCORE.INTER.SOLV>
15.4001

>  <SCORE.INTER.VDW>
-18.7828

>  <SCORE.INTER.norm>
-1.25618

>  <SCORE.INTRA>
0

>  <SCORE.INTRA.DIHEDRAL>
0

>  <SCORE.INTRA.DIHEDRAL.0>
0

>  <SCORE.INTRA.POLAR>
0

>  <SCORE.INTRA.POLAR.0>
0

>  <SCORE.INTRA.REPUL>
0

>  <SCORE.INTRA.REPUL.0>
0

>  <SCORE.INTRA.SOLV>
0

>  <SCORE.INTRA.SOLV.lig_0>
-48.1583

>  <SCORE.INTRA.VDW>
0

>  <SCORE.INTRA.VDW.0>
0

>  <SCORE.INTRA.norm>
0

>  <SCORE.RESTR>
0

>  <SCORE.RESTR.CAVITY>
0

>  <SCORE.RESTR.norm>
0

>  <SCORE.SYSTEM>
0

>  <SCORE.SYSTEM.CONST>
0

>  <SCORE.SYSTEM.DIHEDRAL>
0

>  <SCORE.SYSTEM.SOLV>
0

>  <SCORE.SYSTEM.norm>
0

>  <SCORE.heavy>
12

>  <SCORE.norm>
-1.25618

>  <RMSD>
3.074

$$$$
ligand
 OpenBabel11021811503D
libRbt.so/2013.1/901 2013/11/27
 12 13  0  0  0  0  0  0  0  0999 V2000
    4.6347   15.3872    4.0364 C   0  0  0  0  0  0  0  0  0  0  0  0
    5.9401   16.9867    2.9535 C   0  0  0  0  0  0  0  0  0  0  0  0
    3.9590   14.2428    3.9851 N   0  0  0  0  0  0  0  0  0  0  0  0
    6.5391   17.4890    1.8682 N   0  0  0  0  0  0  0  0  0  0  0  0
    5.2335   15.8491    2.9169 N   0  0  0  0  0  0  0  0  0  0  0  0
    4.7346   16.0531    5.2082 N   0  0  0  0  0  0  0  0  0  0  0  0
    6.8619   19.5958    5.4051 N   0  0  0  0  0  0  0  0  0  0  0  0
    6.2311   19.0823    6.5488 C   0  0  0  0  0  0  0  0  0  0  0  0
    5.4979   17.8753    6.4701 N   0  0  0  0  0  0  0  0  0  0  0  0
    5.4296   17.2148    5.2941 C   0  0  0  0  0  0  0  0  0  0  0  0
    6.0621   17.7073    4.1480 C   0  0  0  0  0  0  0  0  0  0  0  0
    6.7842   18.8988    4.1831 C   0  0  0  0  0  0  0  0  0  0  0  0
  1  3  1  0  0  0  0
  1  5  1  0  0  0  0
  1  6  2  0  0  0  0
  2  5  2  0  0  0  0
  2 11  1  0  0  0  0
  2  4  1  0  0  0  0
  6 10  1  0  0  0  0
  7  8  2  0  0  0  0
  7 12  1  0  0  0  0
  8  9  1  0  0  0  0
  9 10  2  0  0  0  0
 10 11  1  0  0  0  0
 11 12  2  0  0  0  0
M  END
>  <CHROM.1>
5.64456532,17.17183486,4.40974526,2.31576808,-0.97519514,-1.99301308

>  <Name>
ligand

>  <RI>
0

>  <Rbt.Current_Directory>
/home/itssahil/PROJECTS/Mol_Feturizer/New_Systems/rnas/4LX5

>  <Rbt.Executable>
rbdock ($Id: //depot/dev/client3/rdock/2013.1/src/exe/rbdock.cxx#4 $)

>  <Rbt.Library>
libRbt.so (2013.1, Build901 2013/11/27)

>  <Rbt.Parameter_File>
/export/apps/rDock/src/rDock_2013.1_src/data/scripts/dock_solv.prm

>  <Rbt.Receptor>
prm/pocket_docking_4.prm

>  <SCORE>
-14.9789

>  <SCORE.INTER>
-14.9789

>  <SCORE.INTER.CONST>
1

>  <SCORE.INTER.POLAR>
0

>  <SCORE.INTER.ROT>
0

>  <SCORE.INTER.SOLV>
15.3165

>  <SCORE.INTER.VDW>
-18.6914

>  <SCORE.INTER.norm>
-1.24824

>  <SCORE.INTRA>
0

>  <SCORE.INTRA.DIHEDRAL>
0

>  <SCORE.INTRA.DIHEDRAL.0>
0

>  <SCORE.INTRA.POLAR>
0

>  <SCORE.INTRA.POLAR.0>
0

>  <SCORE.INTRA.REPUL>
0

>  <SCORE.INTRA.REPUL.0>
0

>  <SCORE.INTRA.SOLV>
0

>  <SCORE.INTRA.SOLV.lig_0>
-48.1583

>  <SCORE.INTRA.VDW>
0

>  <SCORE.INTRA.VDW.0>
0

>  <SCORE.INTRA.norm>
0

>  <SCORE.RESTR>
0

>  <SCORE.RESTR.CAVITY>
0

>  <SCORE.RESTR.norm>
0

>  <SCORE.SYSTEM>
0

>  <SCORE.SYSTEM.CONST>
0

>  <SCORE.SYSTEM.DIHEDRAL>
0

>  <SCORE.SYSTEM.SOLV>
0

>  <SCORE.SYSTEM.norm>
0

>  <SCORE.heavy>
12

>  <SCORE.norm>
-1.24824

>  <RMSD>
3.074

$$$$
ligand
 OpenBabel11021811503D
libRbt.so/2013.1/901 2013/11/27
 12 13  0  0  0  0  0  0  0  0999 V2000
    4.6427   15.3776    4.0387 C   0  0  0  0  0  0  0  0  0  0  0  0
    5.9708   16.9625    2.9622 C   0  0  0  0  0  0  0  0  0  0  0  0
    3.9621   14.2361    3.9867 N   0  0  0  0  0  0  0  0  0  0  0  0
    6.5873   17.4536    1.8816 N   0  0  0  0  0  0  0  0  0  0  0  0
    5.2592   15.8281    2.9242 N   0  0  0  0  0  0  0  0  0  0  0  0
    4.7295   16.0520    5.2068 N   0  0  0  0  0  0  0  0  0  0  0  0
    6.8711   19.5859    5.4065 N   0  0  0  0  0  0  0  0  0  0  0  0
    6.2220   19.0841    6.5451 C   0  0  0  0  0  0  0  0  0  0  0  0
    5.4840   17.8801    6.4654 N   0  0  0  0  0  0  0  0  0  0  0  0
    5.4289   17.2110    5.2935 C   0  0  0  0  0  0  0  0  0  0  0  0
    6.0797   17.6916    4.1527 C   0  0  0  0  0  0  0  0  0  0  0  0
    6.8071   18.8799    4.1889 C   0  0  0  0  0  0  0  0  0  0  0  0
  1  3  1  0  0  0  0
  1  5  1  0  0  0  0
  1  6  2  0  0  0  0
  2  5  2  0  0  0  0
  2 11  1  0  0  0  0
  2  4  1  0  0  0  0
  6 10  1  0  0  0  0
  7  8  2  0  0  0  0
  7 12  1  0  0  0  0
  8  9  1  0  0  0  0
  9 10  2  0  0  0  0
 10 11  1  0  0  0  0
 11 12  2  0  0  0  0
M  END
>  <CHROM.1>
5.65593973,17.16021753,4.41265427,2.29697138,-0.96492798,-2.01614023

>  <Name>
ligand

>  <RI>
0

>  <Rbt.Current_Directory>
/home/itssahil/PROJECTS/Mol_Feturizer/New_Systems/rnas/4LX5

>  <Rbt.Executable>
rbdock ($Id: //depot/dev/client3/rdock/2013.1/src/exe/rbdock.cxx#4 $)

>  <Rbt.Library>
libRbt.so (2013.1, Build901 2013/11/27)

>  <Rbt.Parameter_File>
/export/apps/rDock/src/rDock_2013.1_src/data/scripts/dock_solv.prm

>  <Rbt.Receptor>
prm/blind_docking_80.prm

>  <SCORE>
-15.0211

>  <SCORE.INTER>
-15.0211

>  <SCORE.INTER.CONST>
1

>  <SCORE.INTER.POLAR>
0

>  <SCORE.INTER.ROT>
0

>  <SCORE.INTER.SOLV>
15.4027

>  <SCORE.INTER.VDW>
-18.7483

>  <SCORE.INTER.norm>
-1.25176

>  <SCORE.INTRA>
0

>  <SCORE.INTRA.DIHEDRAL>
0

>  <SCORE.INTRA.DIHEDRAL.0>
0

>  <SCORE.INTRA.POLAR>
0

>  <SCORE.INTRA.POLAR.0>
0

>  <SCORE.INTRA.REPUL>
0

>  <SCORE.INTRA.REPUL.0>
0

>  <SCORE.INTRA.SOLV>
0

>  <SCORE.INTRA.SOLV.lig_0>
-48.1583

>  <SCORE.INTRA.VDW>
0

>  <SCORE.INTRA.VDW.0>
0

>  <SCORE.INTRA.norm>
0

>  <SCORE.RESTR>
0

>  <SCORE.RESTR.CAVITY>
0

>  <SCORE.RESTR.norm>
0

>  <SCORE.SYSTEM>
0

>  <SCORE.SYSTEM.CONST>
0

>  <SCORE.SYSTEM.DIHEDRAL>
0

>  <SCORE.SYSTEM.SOLV>
0

>  <SCORE.SYSTEM.norm>
0

>  <SCORE.heavy>
12

>  <SCORE.norm>
-1.25176

>  <RMSD>
3.075

$$$$
ligand
 OpenBabel11021811503D
libRbt.so/2013.1/901 2013/11/27
 12 13  0  0  0  0  0  0  0  0999 V2000
    4.6423   15.4195    4.0495 C   0  0  0  0  0  0  0  0  0  0  0  0
    5.9932   16.9843    2.9718 C   0  0  0  0  0  0  0  0  0  0  0  0
    3.9475   14.2865    3.9991 N   0  0  0  0  0  0  0  0  0  0  0  0
    6.6187   17.4643    1.8914 N   0  0  0  0  0  0  0  0  0  0  0  0
    5.2675   15.8588    2.9353 N   0  0  0  0  0  0  0  0  0  0  0  0
    4.7344   16.0963    5.2158 N   0  0  0  0  0  0  0  0  0  0  0  0
    6.9199   19.6035    5.4107 N   0  0  0  0  0  0  0  0  0  0  0  0
    6.2614   19.1134    6.5491 C   0  0  0  0  0  0  0  0  0  0  0  0
    5.5086   17.9185    6.4709 N   0  0  0  0  0  0  0  0  0  0  0  0
    5.4482   17.2466    5.3009 C   0  0  0  0  0  0  0  0  0  0  0  0
    6.1080   17.7156    4.1605 C   0  0  0  0  0  0  0  0  0  0  0  0
    6.8502   18.8947    4.1951 C   0  0  0  0  0  0  0  0  0  0  0  0
  1  3  1  0  0  0  0
  1  5  1  0  0  0  0
  1  6  2  0  0  0  0
  2  5  2  0  0  0  0
  2 11  1  0  0  0  0
  2  4  1  0  0  0  0
  6 10  1  0  0  0  0
  7  8  2  0  0  0  0
  7 12  1  0  0  0  0
  8  9  1  0  0  0  0
  9 10  2  0  0  0  0
 10 11  1  0  0  0  0
 11 12  2  0  0  0  0
M  END
>  <CHROM.1>
5.67690716,17.19030859,4.42083974,2.30216305,-0.95240975,-2.01489920

>  <Name>
ligand

>  <RI>
0

>  <Rbt.Current_Directory>
/home/itssahil/PROJECTS/Mol_Feturizer/New_Systems/rnas/4LX5

>  <Rbt.Executable>
rbdock ($Id: //depot/dev/client3/rdock/2013.1/src/exe/rbdock.cxx#4 $)

>  <Rbt.Library>
libRbt.so (2013.1, Build901 2013/11/27)

>  <Rbt.Parameter_File>
/export/apps/rDock/src/rDock_2013.1_src/data/scripts/dock_solv.prm

>  <Rbt.Receptor>
prm/pocket_docking_7.prm

>  <SCORE>
-15.0541

>  <SCORE.INTER>
-15.0541

>  <SCORE.INTER.CONST>
1

>  <SCORE.INTER.POLAR>
0

>  <SCORE.INTER.ROT>
0

>  <SCORE.INTER.SOLV>
15.3632

>  <SCORE.INTER.VDW>
-18.7571

>  <SCORE.INTER.norm>
-1.25451

>  <SCORE.INTRA>
0

>  <SCORE.INTRA.DIHEDRAL>
0

>  <SCORE.INTRA.DIHEDRAL.0>
0

>  <SCORE.INTRA.POLAR>
0

>  <SCORE.INTRA.POLAR.0>
0

>  <SCORE.INTRA.REPUL>
0

>  <SCORE.INTRA.REPUL.0>
0

>  <SCORE.INTRA.SOLV>
0

>  <SCORE.INTRA.SOLV.lig_0>
-48.1583

>  <SCORE.INTRA.VDW>
0

>  <SCORE.INTRA.VDW.0>
0

>  <SCORE.INTRA.norm>
0

>  <SCORE.RESTR>
0

>  <SCORE.RESTR.CAVITY>
0

>  <SCORE.RESTR.norm>
0

>  <SCORE.SYSTEM>
0

>  <SCORE.SYSTEM.CONST>
0

>  <SCORE.SYSTEM.DIHEDRAL>
0

>  <SCORE.SYSTEM.SOLV>
0

>  <SCORE.SYSTEM.norm>
0

>  <SCORE.heavy>
12

>  <SCORE.norm>
-1.25451

>  <RMSD>
3.076

$$$$
ligand
 OpenBabel11021811503D
libRbt.so/2013.1/901 2013/11/27
 12 13  0  0  0  0  0  0  0  0999 V2000
    4.6872   15.4567    4.0644 C   0  0  0  0  0  0  0  0  0  0  0  0
    6.0438   17.0348    3.0135 C   0  0  0  0  0  0  0  0  0  0  0  0
    3.9989   14.3207    3.9982 N   0  0  0  0  0  0  0  0  0  0  0  0
    6.6805   17.5247    1.9441 N   0  0  0  0  0  0  0  0  0  0  0  0
    5.3243   15.9060    2.9610 N   0  0  0  0  0  0  0  0  0  0  0  0
    4.7612   16.1268    5.2358 N   0  0  0  0  0  0  0  0  0  0  0  0
    6.9264   19.6435    5.4800 N   0  0  0  0  0  0  0  0  0  0  0  0
    6.2560   19.1431    6.6069 C   0  0  0  0  0  0  0  0  0  0  0  0
    5.5102   17.9450    6.5118 N   0  0  0  0  0  0  0  0  0  0  0  0
    5.4680   17.2801    5.3371 C   0  0  0  0  0  0  0  0  0  0  0  0
    6.1399   17.7594    4.2080 C   0  0  0  0  0  0  0  0  0  0  0  0
    6.8757   18.9419    4.2592 C   0  0  0  0  0  0  0  0  0  0  0  0
  1  3  1  0  0  0  0
  1  5  1  0  0  0  0
  1  6  2  0  0  0  0
  2  5  2  0  0  0  0
  2 11  1  0  0  0  0
  2  4  1  0  0  0  0
  6 10  1  0  0  0  0
  7  8  2  0  0  0  0
  7 12  1  0  0  0  0
  8  9  1  0  0  0  0
  9 10  2  0  0  0  0
 10 11  1  0  0  0  0
 11 12  2  0  0  0  0
M  END
>  <CHROM.1>
5.70817092,17.23036716,4.45965398,2.27872844,-0.95136846,-2.02784321

>  <Name>
ligand

>  <RI>
0

>  <Rbt.Current_Directory>
/home/itssahil/PROJECTS/Mol_Feturizer/New_Systems/rnas/4LX5

>  <Rbt.Executable>
rbdock ($Id: //depot/dev/client3/rdock/2013.1/src/exe/rbdock.cxx#4 $)

>  <Rbt.Library>
libRbt.so (2013.1, Build901 2013/11/27)

>  <Rbt.Parameter_File>
/export/apps/rDock/src/rDock_2013.1_src/data/scripts/dock_solv.prm

>  <Rbt.Receptor>
prm/blind_docking_80.prm

>  <SCORE>
-15.0019

>  <SCORE.INTER>
-15.0019

>  <SCORE.INTER.CONST>
1

>  <SCORE.INTER.POLAR>
0

>  <SCORE.INTER.ROT>
0

>  <SCORE.INTER.SOLV>
15.6359

>  <SCORE.INTER.VDW>
-18.8132

>  <SCORE.INTER.norm>
-1.25015

>  <SCORE.INTRA>
0

>  <SCORE.INTRA.DIHEDRAL>
0

>  <SCORE.INTRA.DIHEDRAL.0>
0

>  <SCORE.INTRA.POLAR>
0

>  <SCORE.INTRA.POLAR.0>
0

>  <SCORE.INTRA.REPUL>
0

>  <SCORE.INTRA.REPUL.0>
0

>  <SCORE.INTRA.SOLV>
0

>  <SCORE.INTRA.SOLV.lig_0>
-48.1583

>  <SCORE.INTRA.VDW>
0

>  <SCORE.INTRA.VDW.0>
0

>  <SCORE.INTRA.norm>
0

>  <SCORE.RESTR>
0

>  <SCORE.RESTR.CAVITY>
0

>  <SCORE.RESTR.norm>
0

>  <SCORE.SYSTEM>
0

>  <SCORE.SYSTEM.CONST>
0

>  <SCORE.SYSTEM.DIHEDRAL>
0

>  <SCORE.SYSTEM.SOLV>
0

>  <SCORE.SYSTEM.norm>
0

>  <SCORE.heavy>
12

>  <SCORE.norm>
-1.25015

>  <RMSD>
3.077

$$$$
ligand
 OpenBabel11021811503D
libRbt.so/2013.1/901 2013/11/27
 12 13  0  0  0  0  0  0  0  0999 V2000
    4.6357   15.5243    4.0558 C   0  0  0  0  0  0  0  0  0  0  0  0
    5.9048   17.1611    2.9857 C   0  0  0  0  0  0  0  0  0  0  0  0
    3.9717   14.3738    3.9914 N   0  0  0  0  0  0  0  0  0  0  0  0
    6.4797   17.6931    1.9015 N   0  0  0  0  0  0  0  0  0  0  0  0
    5.2102   16.0167    2.9365 N   0  0  0  0  0  0  0  0  0  0  0  0
    4.7482   16.1663    5.2398 N   0  0  0  0  0  0  0  0  0  0  0  0
    6.8397   19.7278    5.4767 N   0  0  0  0  0  0  0  0  0  0  0  0
    6.2342   19.1831    6.6196 C   0  0  0  0  0  0  0  0  0  0  0  0
    5.5130   17.9698    6.5274 N   0  0  0  0  0  0  0  0  0  0  0  0
    5.4318   17.3337    5.3388 C   0  0  0  0  0  0  0  0  0  0  0  0
    6.0393   17.8575    4.1931 C   0  0  0  0  0  0  0  0  0  0  0  0
    6.7489   19.0561    4.2416 C   0  0  0  0  0  0  0  0  0  0  0  0
  1  3  1  0  0  0  0
  1  5  1  0  0  0  0
  1  6  2  0  0  0  0
  2  5  2  0  0  0  0
  2 11  1  0  0  0  0
  2  4  1  0  0  0  0
  6 10  1  0  0  0  0
  7  8  2  0  0  0  0
  7 12  1  0  0  0  0
  8  9  1  0  0  0  0
  9 10  2  0  0  0  0
 10 11  1  0  0  0  0
 11 12  2  0  0  0  0
M  END
>  <CHROM.1>
5.63216336,17.31195115,4.45029487,2.33599900,-0.99204947,-1.95485105

>  <Name>
ligand

>  <RI>
0

>  <Rbt.Current_Directory>
/home/itssahil/PROJECTS/Mol_Feturizer/New_Systems/rnas/4LX5

>  <Rbt.Executable>
rbdock ($Id: //depot/dev/client3/rdock/2013.1/src/exe/rbdock.cxx#4 $)

>  <Rbt.Library>
libRbt.so (2013.1, Build901 2013/11/27)

>  <Rbt.Parameter_File>
/export/apps/rDock/src/rDock_2013.1_src/data/scripts/dock_solv.prm

>  <Rbt.Receptor>
prm/blind_docking_40.prm

>  <SCORE>
-14.7802

>  <SCORE.INTER>
-14.7802

>  <SCORE.INTER.CONST>
1

>  <SCORE.INTER.POLAR>
0

>  <SCORE.INTER.ROT>
0

>  <SCORE.INTER.SOLV>
15.4851

>  <SCORE.INTER.VDW>
-18.6152

>  <SCORE.INTER.norm>
-1.23168

>  <SCORE.INTRA>
0

>  <SCORE.INTRA.DIHEDRAL>
0

>  <SCORE.INTRA.DIHEDRAL.0>
0

>  <SCORE.INTRA.POLAR>
0

>  <SCORE.INTRA.POLAR.0>
0

>  <SCORE.INTRA.REPUL>
0

>  <SCORE.INTRA.REPUL.0>
0

>  <SCORE.INTRA.SOLV>
0

>  <SCORE.INTRA.SOLV.lig_0>
-48.1583

>  <SCORE.INTRA.VDW>
0

>  <SCORE.INTRA.VDW.0>
0

>  <SCORE.INTRA.norm>
0

>  <SCORE.RESTR>
0

>  <SCORE.RESTR.CAVITY>
0

>  <SCORE.RESTR.norm>
0

>  <SCORE.SYSTEM>
0

>  <SCORE.SYSTEM.CONST>
0

>  <SCORE.SYSTEM.DIHEDRAL>
0

>  <SCORE.SYSTEM.SOLV>
0

>  <SCORE.SYSTEM.norm>
0

>  <SCORE.heavy>
12

>  <SCORE.norm>
-1.23168

>  <RMSD>
3.078

$$$$
ligand
 OpenBabel11021811503D
libRbt.so/2013.1/901 2013/11/27
 12 13  0  0  0  0  0  0  0  0999 V2000
    4.6849   15.4437    4.0642 C   0  0  0  0  0  0  0  0  0  0  0  0
    6.0352   17.0289    3.0158 C   0  0  0  0  0  0  0  0  0  0  0  0
    4.0013   14.3049    3.9963 N   0  0  0  0  0  0  0  0  0  0  0  0
    6.6703   17.5227    1.9473 N   0  0  0  0  0  0  0  0  0  0  0  0
    5.3205   15.8971    2.9616 N   0  0  0  0  0  0  0  0  0  0  0  0
    4.7556   16.1126    5.2365 N   0  0  0  0  0  0  0  0  0  0  0  0
    6.9058   19.6381    5.4859 N   0  0  0  0  0  0  0  0  0  0  0  0
    6.2371   19.1335    6.6119 C   0  0  0  0  0  0  0  0  0  0  0  0
    5.4964   17.9324    6.5151 N   0  0  0  0  0  0  0  0  0  0  0  0
    5.4575   17.2687    5.3395 C   0  0  0  0  0  0  0  0  0  0  0  0
    6.1278   17.7523    4.2113 C   0  0  0  0  0  0  0  0  0  0  0  0
    6.8585   18.9378    4.2643 C   0  0  0  0  0  0  0  0  0  0  0  0
  1  3  1  0  0  0  0
  1  5  1  0  0  0  0
  1  6  2  0  0  0  0
  2  5  2  0  0  0  0
  2 11  1  0  0  0  0
  2  4  1  0  0  0  0
  6 10  1  0  0  0  0
  7  8  2  0  0  0  0
  7 12  1  0  0  0  0
  8  9  1  0  0  0  0
  9 10  2  0  0  0  0
 10 11  1  0  0  0  0
 11 12  2  0  0  0  0
M  END
>  <CHROM.1>
5.69818394,17.22116002,4.46207875,2.27489272,-0.95497648,-2.02971558

>  <Name>
ligand

>  <RI>
0

>  <Rbt.Current_Directory>
/home/itssahil/PROJECTS/Mol_Feturizer/New_Systems/rnas/4LX5

>  <Rbt.Executable>
rbdock ($Id: //depot/dev/client3/rdock/2013.1/src/exe/rbdock.cxx#4 $)

>  <Rbt.Library>
libRbt.so (2013.1, Build901 2013/11/27)

>  <Rbt.Parameter_File>
/export/apps/rDock/src/rDock_2013.1_src/data/scripts/dock_solv.prm

>  <Rbt.Receptor>
prm/pocket_docking_3.prm

>  <SCORE>
-15.0124

>  <SCORE.INTER>
-15.0124

>  <SCORE.INTER.CONST>
1

>  <SCORE.INTER.POLAR>
0

>  <SCORE.INTER.ROT>
0

>  <SCORE.INTER.SOLV>
15.6336

>  <SCORE.INTER.VDW>
-18.8195

>  <SCORE.INTER.norm>
-1.25103

>  <SCORE.INTRA>
0

>  <SCORE.INTRA.DIHEDRAL>
0

>  <SCORE.INTRA.DIHEDRAL.0>
0

>  <SCORE.INTRA.POLAR>
0

>  <SCORE.INTRA.POLAR.0>
0

>  <SCORE.INTRA.REPUL>
0

>  <SCORE.INTRA.REPUL.0>
0

>  <SCORE.INTRA.SOLV>
0

>  <SCORE.INTRA.SOLV.lig_0>
-48.1583

>  <SCORE.INTRA.VDW>
0

>  <SCORE.INTRA.VDW.0>
0

>  <SCORE.INTRA.norm>
0

>  <SCORE.RESTR>
0

>  <SCORE.RESTR.CAVITY>
0

>  <SCORE.RESTR.norm>
0

>  <SCORE.SYSTEM>
0

>  <SCORE.SYSTEM.CONST>
0

>  <SCORE.SYSTEM.DIHEDRAL>
0

>  <SCORE.SYSTEM.SOLV>
0

>  <SCORE.SYSTEM.norm>
0

>  <SCORE.heavy>
12

>  <SCORE.norm>
-1.25103

>  <RMSD>
3.079

$$$$
ligand
 OpenBabel11021811503D
libRbt.so/2013.1/901 2013/11/27
 12 13  0  0  0  0  0  0  0  0999 V2000
    4.6196   15.4113    4.0998 C   0  0  0  0  0  0  0  0  0  0  0  0
    5.9589   16.9606    2.9859 C   0  0  0  0  0  0  0  0  0  0  0  0
    3.9171   14.2824    4.0703 N   0  0  0  0  0  0  0  0  0  0  0  0
    6.5662   17.4298    1.8905 N   0  0  0  0  0  0  0  0  0  0  0  0
    5.2257   15.8395    2.9709 N   0  0  0  0  0  0  0  0  0  0  0  0
    4.7386   16.0949    5.2596 N   0  0  0  0  0  0  0  0  0  0  0  0
    6.9489   19.5896    5.3892 N   0  0  0  0  0  0  0  0  0  0  0  0
    6.3097   19.1110    6.5433 C   0  0  0  0  0  0  0  0  0  0  0  0
    5.5482   17.9203    6.4876 N   0  0  0  0  0  0  0  0  0  0  0  0
    5.4609   17.2413    5.3234 C   0  0  0  0  0  0  0  0  0  0  0  0
    6.1014   17.6988    4.1673 C   0  0  0  0  0  0  0  0  0  0  0  0
    6.8513   18.8734    4.1798 C   0  0  0  0  0  0  0  0  0  0  0  0
  1  3  1  0  0  0  0
  1  5  1  0  0  0  0
  1  6  2  0  0  0  0
  2  5  2  0  0  0  0
  2 11  1  0  0  0  0
  2  4  1  0  0  0  0
  6 10  1  0  0  0  0
  7  8  2  0  0  0  0
  7 12  1  0  0  0  0
  8  9  1  0  0  0  0
  9 10  2  0  0  0  0
 10 11  1  0  0  0  0
 11 12  2  0  0  0  0
M  END
>  <CHROM.1>
5.67213850,17.17793631,4.43943341,2.33712614,-0.95492531,-1.99287127

>  <Name>
ligand

>  <RI>
0

>  <Rbt.Current_Directory>
/home/itssahil/PROJECTS/Mol_Feturizer/New_Systems/rnas/4LX5

>  <Rbt.Executable>
rbdock ($Id: //depot/dev/client3/rdock/2013.1/src/exe/rbdock.cxx#4 $)

>  <Rbt.Library>
libRbt.so (2013.1, Build901 2013/11/27)

>  <Rbt.Parameter_File>
/export/apps/rDock/src/rDock_2013.1_src/data/scripts/dock_solv.prm

>  <Rbt.Receptor>
prm/blind_docking_60.prm

>  <SCORE>
-14.9231

>  <SCORE.INTER>
-14.9231

>  <SCORE.INTER.CONST>
1

>  <SCORE.INTER.POLAR>
0

>  <SCORE.INTER.ROT>
0

>  <SCORE.INTER.SOLV>
15.1731

>  <SCORE.INTER.VDW>
-18.6064

>  <SCORE.INTER.norm>
-1.24359

>  <SCORE.INTRA>
0

>  <SCORE.INTRA.DIHEDRAL>
0

>  <SCORE.INTRA.DIHEDRAL.0>
0

>  <SCORE.INTRA.POLAR>
0

>  <SCORE.INTRA.POLAR.0>
0

>  <SCORE.INTRA.REPUL>
0

>  <SCORE.INTRA.REPUL.0>
0

>  <SCORE.INTRA.SOLV>
0

>  <SCORE.INTRA.SOLV.lig_0>
-48.1583

>  <SCORE.INTRA.VDW>
0

>  <SCORE.INTRA.VDW.0>
0

>  <SCORE.INTRA.norm>
0

>  <SCORE.RESTR>
0

>  <SCORE.RESTR.CAVITY>
0

>  <SCORE.RESTR.norm>
0

>  <SCORE.SYSTEM>
0

>  <SCORE.SYSTEM.CONST>
0

>  <SCORE.SYSTEM.DIHEDRAL>
0

>  <SCORE.SYSTEM.SOLV>
0

>  <SCORE.SYSTEM.norm>
0

>  <SCORE.heavy>
12

>  <SCORE.norm>
-1.24359

>  <RMSD>
3.091

$$$$
ligand
 OpenBabel11021811503D
libRbt.so/2013.1/901 2013/11/27
 12 13  0  0  0  0  0  0  0  0999 V2000
    4.6371   15.4055    4.1019 C   0  0  0  0  0  0  0  0  0  0  0  0
    5.9580   16.9735    2.9920 C   0  0  0  0  0  0  0  0  0  0  0  0
    3.9479   14.2685    4.0693 N   0  0  0  0  0  0  0  0  0  0  0  0
    6.5597   17.4527    1.8978 N   0  0  0  0  0  0  0  0  0  0  0  0
    5.2380   15.8438    2.9740 N   0  0  0  0  0  0  0  0  0  0  0  0
    4.7481   16.0874    5.2635 N   0  0  0  0  0  0  0  0  0  0  0  0
    6.9172   19.6075    5.4023 N   0  0  0  0  0  0  0  0  0  0  0  0
    6.2838   19.1183    6.5551 C   0  0  0  0  0  0  0  0  0  0  0  0
    5.5363   17.9189    6.4963 N   0  0  0  0  0  0  0  0  0  0  0  0
    5.4569   17.2420    5.3303 C   0  0  0  0  0  0  0  0  0  0  0  0
    6.0918   17.7101    4.1754 C   0  0  0  0  0  0  0  0  0  0  0  0
    6.8279   18.8935    4.1910 C   0  0  0  0  0  0  0  0  0  0  0  0
  1  3  1  0  0  0  0
  1  5  1  0  0  0  0
  1  6  2  0  0  0  0
  2  5  2  0  0  0  0
  2 11  1  0  0  0  0
  2  4  1  0  0  0  0
  6 10  1  0  0  0  0
  7  8  2  0  0  0  0
  7 12  1  0  0  0  0
  8  9  1  0  0  0  0
  9 10  2  0  0  0  0
 10 11  1  0  0  0  0
 11 12  2  0  0  0  0
M  END
>  <CHROM.1>
5.66880658,17.18352274,4.44612734,2.32877799,-0.96567288,-1.99703610

>  <Name>
ligand

>  <RI>
0

>  <Rbt.Current_Directory>
/home/itssahil/PROJECTS/Mol_Feturizer/New_Systems/rnas/4LX5

>  <Rbt.Executable>
rbdock ($Id: //depot/dev/client3/rdock/2013.1/src/exe/rbdock.cxx#4 $)

>  <Rbt.Library>
libRbt.so (2013.1, Build901 2013/11/27)

>  <Rbt.Parameter_File>
/export/apps/rDock/src/rDock_2013.1_src/data/scripts/dock_solv.prm

>  <Rbt.Receptor>
prm/pocket_docking_8.prm

>  <SCORE>
-14.9365

>  <SCORE.INTER>
-14.9365

>  <SCORE.INTER.CONST>
1

>  <SCORE.INTER.POLAR>
0

>  <SCORE.INTER.ROT>
0

>  <SCORE.INTER.SOLV>
15.3259

>  <SCORE.INTER.VDW>
-18.6663

>  <SCORE.INTER.norm>
-1.24471

>  <SCORE.INTRA>
0

>  <SCORE.INTRA.DIHEDRAL>
0

>  <SCORE.INTRA.DIHEDRAL.0>
0

>  <SCORE.INTRA.POLAR>
0

>  <SCORE.INTRA.POLAR.0>
0

>  <SCORE.INTRA.REPUL>
0

>  <SCORE.INTRA.REPUL.0>
0

>  <SCORE.INTRA.SOLV>
0

>  <SCORE.INTRA.SOLV.lig_0>
-48.1583

>  <SCORE.INTRA.VDW>
0

>  <SCORE.INTRA.VDW.0>
0

>  <SCORE.INTRA.norm>
0

>  <SCORE.RESTR>
0

>  <SCORE.RESTR.CAVITY>
0

>  <SCORE.RESTR.norm>
0

>  <SCORE.SYSTEM>
0

>  <SCORE.SYSTEM.CONST>
0

>  <SCORE.SYSTEM.DIHEDRAL>
0

>  <SCORE.SYSTEM.SOLV>
0

>  <SCORE.SYSTEM.norm>
0

>  <SCORE.heavy>
12

>  <SCORE.norm>
-1.24471

>  <RMSD>
3.091

$$$$
ligand
 OpenBabel11021811503D
libRbt.so/2013.1/901 2013/11/27
 12 13  0  0  0  0  0  0  0  0999 V2000
    6.4895   18.1268    5.4497 C   0  0  0  0  0  0  0  0  0  0  0  0
    5.0590   16.6752    4.3176 C   0  0  0  0  0  0  0  0  0  0  0  0
    6.9248   18.6302    6.6012 N   0  0  0  0  0  0  0  0  0  0  0  0
    4.0683   15.7773    4.2823 N   0  0  0  0  0  0  0  0  0  0  0  0
    5.4945   17.2131    5.4647 N   0  0  0  0  0  0  0  0  0  0  0  0
    7.0650   18.5147    4.2900 N   0  0  0  0  0  0  0  0  0  0  0  0
    5.7562   16.9372    0.6965 N   0  0  0  0  0  0  0  0  0  0  0  0
    6.7914   17.8845    0.7206 C   0  0  0  0  0  0  0  0  0  0  0  0
    7.2260   18.4256    1.9530 N   0  0  0  0  0  0  0  0  0  0  0  0
    6.6520   18.0074    3.1017 C   0  0  0  0  0  0  0  0  0  0  0  0
    5.6271   17.0557    3.0956 C   0  0  0  0  0  0  0  0  0  0  0  0
    5.1641   16.5079    1.9007 C   0  0  0  0  0  0  0  0  0  0  0  0
  1  3  1  0  0  0  0
  1  5  1  0  0  0  0
  1  6  2  0  0  0  0
  2  5  2  0  0  0  0
  2 11  1  0  0  0  0
  2  4  1  0  0  0  0
  6 10  1  0  0  0  0
  7  8  2  0  0  0  0
  7 12  1  0  0  0  0
  8  9  1  0  0  0  0
  9 10  2  0  0  0  0
 10 11  1  0  0  0  0
 11 12  2  0  0  0  0
M  END
>  <CHROM.1>
6.03129956,17.48754272,3.51952871,-1.55042252,-0.73940186,-1.67781586

>  <Name>
ligand

>  <RI>
0

>  <Rbt.Current_Directory>
/home/itssahil/PROJECTS/Mol_Feturizer/New_Systems/rnas/4LX5

>  <Rbt.Executable>
rbdock ($Id: //depot/dev/client3/rdock/2013.1/src/exe/rbdock.cxx#4 $)

>  <Rbt.Library>
libRbt.so (2013.1, Build901 2013/11/27)

>  <Rbt.Parameter_File>
/export/apps/rDock/src/rDock_2013.1_src/data/scripts/dock_solv.prm

>  <Rbt.Receptor>
prm/blind_docking_40.prm

>  <SCORE>
-12.3048

>  <SCORE.INTER>
-12.3048

>  <SCORE.INTER.CONST>
1

>  <SCORE.INTER.POLAR>
0

>  <SCORE.INTER.ROT>
0

>  <SCORE.INTER.SOLV>
17.7366

>  <SCORE.INTER.VDW>
-17.7154

>  <SCORE.INTER.norm>
-1.0254

>  <SCORE.INTRA>
0

>  <SCORE.INTRA.DIHEDRAL>
0

>  <SCORE.INTRA.DIHEDRAL.0>
0

>  <SCORE.INTRA.POLAR>
0

>  <SCORE.INTRA.POLAR.0>
0

>  <SCORE.INTRA.REPUL>
0

>  <SCORE.INTRA.REPUL.0>
0

>  <SCORE.INTRA.SOLV>
0

>  <SCORE.INTRA.SOLV.lig_0>
-48.1583

>  <SCORE.INTRA.VDW>
0

>  <SCORE.INTRA.VDW.0>
0

>  <SCORE.INTRA.norm>
0

>  <SCORE.RESTR>
0

>  <SCORE.RESTR.CAVITY>
0

>  <SCORE.RESTR.norm>
0

>  <SCORE.SYSTEM>
0

>  <SCORE.SYSTEM.CONST>
0

>  <SCORE.SYSTEM.DIHEDRAL>
0

>  <SCORE.SYSTEM.SOLV>
0

>  <SCORE.SYSTEM.norm>
0

>  <SCORE.heavy>
12

>  <SCORE.norm>
-1.0254

>  <RMSD>
3.664

$$$$
ligand
 OpenBabel11021811503D
libRbt.so/2013.1/901 2013/11/27
 12 13  0  0  0  0  0  0  0  0999 V2000
    6.5478   18.1300    5.1036 C   0  0  0  0  0  0  0  0  0  0  0  0
    4.9790   16.7859    4.0232 C   0  0  0  0  0  0  0  0  0  0  0  0
    7.0727   18.5814    6.2392 N   0  0  0  0  0  0  0  0  0  0  0  0
    3.9393   15.9445    4.0246 N   0  0  0  0  0  0  0  0  0  0  0  0
    5.5056   17.2718    5.1551 N   0  0  0  0  0  0  0  0  0  0  0  0
    7.0799   18.5134    3.9218 N   0  0  0  0  0  0  0  0  0  0  0  0
    5.4909   17.0956    0.3750 N   0  0  0  0  0  0  0  0  0  0  0  0
    6.5771   17.9841    0.3610 C   0  0  0  0  0  0  0  0  0  0  0  0
    7.1079   18.4713    1.5782 N   0  0  0  0  0  0  0  0  0  0  0  0
    6.5750   18.0578    2.7482 C   0  0  0  0  0  0  0  0  0  0  0  0
    5.4998   17.1638    2.7795 C   0  0  0  0  0  0  0  0  0  0  0  0
    4.9424   16.6706    1.6013 C   0  0  0  0  0  0  0  0  0  0  0  0
  1  3  1  0  0  0  0
  1  5  1  0  0  0  0
  1  6  2  0  0  0  0
  2  5  2  0  0  0  0
  2 11  1  0  0  0  0
  2  4  1  0  0  0  0
  6 10  1  0  0  0  0
  7  8  2  0  0  0  0
  7 12  1  0  0  0  0
  8  9  1  0  0  0  0
  9 10  2  0  0  0  0
 10 11  1  0  0  0  0
 11 12  2  0  0  0  0
M  END
>  <CHROM.1>
5.94998377,17.56279008,3.18912076,-1.47237128,-0.68817053,-1.60439282

>  <Name>
ligand

>  <RI>
0

>  <Rbt.Current_Directory>
/home/itssahil/PROJECTS/Mol_Feturizer/New_Systems/rnas/4LX5

>  <Rbt.Executable>
rbdock ($Id: //depot/dev/client3/rdock/2013.1/src/exe/rbdock.cxx#4 $)

>  <Rbt.Library>
libRbt.so (2013.1, Build901 2013/11/27)

>  <Rbt.Parameter_File>
/export/apps/rDock/src/rDock_2013.1_src/data/scripts/dock_solv.prm

>  <Rbt.Receptor>
prm/pocket_docking_8.prm

>  <SCORE>
-12.1924

>  <SCORE.INTER>
-12.1924

>  <SCORE.INTER.CONST>
1

>  <SCORE.INTER.POLAR>
0

>  <SCORE.INTER.ROT>
0

>  <SCORE.INTER.SOLV>
15.3939

>  <SCORE.INTER.VDW>
-16.8596

>  <SCORE.INTER.norm>
-1.01603

>  <SCORE.INTRA>
0

>  <SCORE.INTRA.DIHEDRAL>
0

>  <SCORE.INTRA.DIHEDRAL.0>
0

>  <SCORE.INTRA.POLAR>
0

>  <SCORE.INTRA.POLAR.0>
0

>  <SCORE.INTRA.REPUL>
0

>  <SCORE.INTRA.REPUL.0>
0

>  <SCORE.INTRA.SOLV>
0

>  <SCORE.INTRA.SOLV.lig_0>
-48.1583

>  <SCORE.INTRA.VDW>
0

>  <SCORE.INTRA.VDW.0>
0

>  <SCORE.INTRA.norm>
0

>  <SCORE.RESTR>
0

>  <SCORE.RESTR.CAVITY>
0

>  <SCORE.RESTR.norm>
0

>  <SCORE.SYSTEM>
0

>  <SCORE.SYSTEM.CONST>
0

>  <SCORE.SYSTEM.DIHEDRAL>
0

>  <SCORE.SYSTEM.SOLV>
0

>  <SCORE.SYSTEM.norm>
0

>  <SCORE.heavy>
12

>  <SCORE.norm>
-1.01603

>  <RMSD>
3.665

$$$$
ligand
 OpenBabel11021811503D
libRbt.so/2013.1/901 2013/11/27
 12 13  0  0  0  0  0  0  0  0999 V2000
    6.6036   18.2462    5.3572 C   0  0  0  0  0  0  0  0  0  0  0  0
    5.0695   16.8386    4.3084 C   0  0  0  0  0  0  0  0  0  0  0  0
    7.0943   18.7620    6.4806 N   0  0  0  0  0  0  0  0  0  0  0  0
    4.0318   15.9949    4.3265 N   0  0  0  0  0  0  0  0  0  0  0  0
    5.5620   17.3886    5.4262 N   0  0  0  0  0  0  0  0  0  0  0  0
    7.1693   18.5650    4.1718 N   0  0  0  0  0  0  0  0  0  0  0  0
    5.6872   16.9463    0.6650 N   0  0  0  0  0  0  0  0  0  0  0  0
    6.7717   17.8365    0.6330 C   0  0  0  0  0  0  0  0  0  0  0  0
    7.2658   18.3925    1.8360 N   0  0  0  0  0  0  0  0  0  0  0  0
    6.6997   18.0430    3.0113 C   0  0  0  0  0  0  0  0  0  0  0  0
    5.6258   17.1484    3.0612 C   0  0  0  0  0  0  0  0  0  0  0  0
    5.1039   16.5884    1.8966 C   0  0  0  0  0  0  0  0  0  0  0  0
  1  3  1  0  0  0  0
  1  5  1  0  0  0  0
  1  6  2  0  0  0  0
  2  5  2  0  0  0  0
  2 11  1  0  0  0  0
  2  4  1  0  0  0  0
  6 10  1  0  0  0  0
  7  8  2  0  0  0  0
  7 12  1  0  0  0  0
  8  9  1  0  0  0  0
  9 10  2  0  0  0  0
 10 11  1  0  0  0  0
 11 12  2  0  0  0  0
M  END
>  <CHROM.1>
6.06303804,17.57116471,3.46079858,-1.51027426,-0.68869261,-1.68425863

>  <Name>
ligand

>  <RI>
0

>  <Rbt.Current_Directory>
/home/itssahil/PROJECTS/Mol_Feturizer/New_Systems/rnas/4LX5

>  <Rbt.Executable>
rbdock ($Id: //depot/dev/client3/rdock/2013.1/src/exe/rbdock.cxx#4 $)

>  <Rbt.Library>
libRbt.so (2013.1, Build901 2013/11/27)

>  <Rbt.Parameter_File>
/export/apps/rDock/src/rDock_2013.1_src/data/scripts/dock_solv.prm

>  <Rbt.Receptor>
prm/blind_docking_40.prm

>  <SCORE>
-12.2498

>  <SCORE.INTER>
-12.2498

>  <SCORE.INTER.CONST>
1

>  <SCORE.INTER.POLAR>
0

>  <SCORE.INTER.ROT>
0

>  <SCORE.INTER.SOLV>
17.1048

>  <SCORE.INTER.VDW>
-17.4681

>  <SCORE.INTER.norm>
-1.02081

>  <SCORE.INTRA>
0

>  <SCORE.INTRA.DIHEDRAL>
0

>  <SCORE.INTRA.DIHEDRAL.0>
0

>  <SCORE.INTRA.POLAR>
0

>  <SCORE.INTRA.POLAR.0>
0

>  <SCORE.INTRA.REPUL>
0

>  <SCORE.INTRA.REPUL.0>
0

>  <SCORE.INTRA.SOLV>
0

>  <SCORE.INTRA.SOLV.lig_0>
-48.1583

>  <SCORE.INTRA.VDW>
0

>  <SCORE.INTRA.VDW.0>
0

>  <SCORE.INTRA.norm>
0

>  <SCORE.RESTR>
0

>  <SCORE.RESTR.CAVITY>
0

>  <SCORE.RESTR.norm>
0

>  <SCORE.SYSTEM>
0

>  <SCORE.SYSTEM.CONST>
0

>  <SCORE.SYSTEM.DIHEDRAL>
0

>  <SCORE.SYSTEM.SOLV>
0

>  <SCORE.SYSTEM.norm>
0

>  <SCORE.heavy>
12

>  <SCORE.norm>
-1.02081

>  <RMSD>
3.667

$$$$
ligand
 OpenBabel11021811503D
libRbt.so/2013.1/901 2013/11/27
 12 13  0  0  0  0  0  0  0  0999 V2000
    6.5507   18.2612    5.1609 C   0  0  0  0  0  0  0  0  0  0  0  0
    5.0602   16.8335    4.0770 C   0  0  0  0  0  0  0  0  0  0  0  0
    7.0300   18.7593    6.2972 N   0  0  0  0  0  0  0  0  0  0  0  0
    4.0525   15.9539    4.0744 N   0  0  0  0  0  0  0  0  0  0  0  0
    5.5400   17.3660    5.2088 N   0  0  0  0  0  0  0  0  0  0  0  0
    7.0978   18.6355    3.9831 N   0  0  0  0  0  0  0  0  0  0  0  0
    5.6518   17.0736    0.4356 N   0  0  0  0  0  0  0  0  0  0  0  0
    6.7045   18.0017    0.4255 C   0  0  0  0  0  0  0  0  0  0  0  0
    7.1862   18.5378    1.6426 N   0  0  0  0  0  0  0  0  0  0  0  0
    6.6397   18.1330    2.8094 C   0  0  0  0  0  0  0  0  0  0  0  0
    5.5978   17.2004    2.8372 C   0  0  0  0  0  0  0  0  0  0  0  0
    5.0887   16.6582    1.6586 C   0  0  0  0  0  0  0  0  0  0  0  0
  1  3  1  0  0  0  0
  1  5  1  0  0  0  0
  1  6  2  0  0  0  0
  2  5  2  0  0  0  0
  2 11  1  0  0  0  0
  2  4  1  0  0  0  0
  6 10  1  0  0  0  0
  7  8  2  0  0  0  0
  7 12  1  0  0  0  0
  8  9  1  0  0  0  0
  9 10  2  0  0  0  0
 10 11  1  0  0  0  0
 11 12  2  0  0  0  0
M  END
>  <CHROM.1>
6.02252388,17.62576388,3.24740189,-1.50752743,-0.72392449,-1.65190074

>  <Name>
ligand

>  <RI>
0

>  <Rbt.Current_Directory>
/home/itssahil/PROJECTS/Mol_Feturizer/New_Systems/rnas/4LX5

>  <Rbt.Executable>
rbdock ($Id: //depot/dev/client3/rdock/2013.1/src/exe/rbdock.cxx#4 $)

>  <Rbt.Library>
libRbt.so (2013.1, Build901 2013/11/27)

>  <Rbt.Parameter_File>
/export/apps/rDock/src/rDock_2013.1_src/data/scripts/dock_solv.prm

>  <Rbt.Receptor>
prm/pocket_docking_8.prm

>  <SCORE>
-12.2777

>  <SCORE.INTER>
-12.2777

>  <SCORE.INTER.CONST>
1

>  <SCORE.INTER.POLAR>
0

>  <SCORE.INTER.ROT>
0

>  <SCORE.INTER.SOLV>
15.9127

>  <SCORE.INTER.VDW>
-17.0894

>  <SCORE.INTER.norm>
-1.02314

>  <SCORE.INTRA>
0

>  <SCORE.INTRA.DIHEDRAL>
0

>  <SCORE.INTRA.DIHEDRAL.0>
0

>  <SCORE.INTRA.POLAR>
0

>  <SCORE.INTRA.POLAR.0>
0

>  <SCORE.INTRA.REPUL>
0

>  <SCORE.INTRA.REPUL.0>
0

>  <SCORE.INTRA.SOLV>
0

>  <SCORE.INTRA.SOLV.lig_0>
-48.1583

>  <SCORE.INTRA.VDW>
0

>  <SCORE.INTRA.VDW.0>
0

>  <SCORE.INTRA.norm>
0

>  <SCORE.RESTR>
0

>  <SCORE.RESTR.CAVITY>
0

>  <SCORE.RESTR.norm>
0

>  <SCORE.SYSTEM>
0

>  <SCORE.SYSTEM.CONST>
0

>  <SCORE.SYSTEM.DIHEDRAL>
0

>  <SCORE.SYSTEM.SOLV>
0

>  <SCORE.SYSTEM.norm>
0

>  <SCORE.heavy>
12

>  <SCORE.norm>
-1.02314

>  <RMSD>
3.668

$$$$
ligand
 OpenBabel11021811503D
libRbt.so/2013.1/901 2013/11/27
 12 13  0  0  0  0  0  0  0  0999 V2000
    6.4228   18.0617    5.2997 C   0  0  0  0  0  0  0  0  0  0  0  0
    4.9094   16.7509    4.1054 C   0  0  0  0  0  0  0  0  0  0  0  0
    6.8746   18.4995    6.4715 N   0  0  0  0  0  0  0  0  0  0  0  0
    3.8567   15.9292    4.0297 N   0  0  0  0  0  0  0  0  0  0  0  0
    5.3638   17.2232    5.2738 N   0  0  0  0  0  0  0  0  0  0  0  0
    7.0439   18.4388    4.1601 N   0  0  0  0  0  0  0  0  0  0  0  0
    5.6830   17.0625    0.5037 N   0  0  0  0  0  0  0  0  0  0  0  0
    6.7838   17.9305    0.5703 C   0  0  0  0  0  0  0  0  0  0  0  0
    7.2364   18.4037    1.8241 N   0  0  0  0  0  0  0  0  0  0  0  0
    6.6147   17.9966    2.9517 C   0  0  0  0  0  0  0  0  0  0  0  0
    5.5236   17.1229    2.9032 C   0  0  0  0  0  0  0  0  0  0  0  0
    5.0416   16.6441    1.6864 C   0  0  0  0  0  0  0  0  0  0  0  0
  1  3  1  0  0  0  0
  1  5  1  0  0  0  0
  1  6  2  0  0  0  0
  2  5  2  0  0  0  0
  2 11  1  0  0  0  0
  2  4  1  0  0  0  0
  6 10  1  0  0  0  0
  7  8  2  0  0  0  0
  7 12  1  0  0  0  0
  8  9  1  0  0  0  0
  9 10  2  0  0  0  0
 10 11  1  0  0  0  0
 11 12  2  0  0  0  0
M  END
>  <CHROM.1>
5.95107836,17.51199870,3.34530680,-1.56130373,-0.66527375,-1.65624514

>  <Name>
ligand

>  <RI>
0

>  <Rbt.Current_Directory>
/home/itssahil/PROJECTS/Mol_Feturizer/New_Systems/rnas/4LX5

>  <Rbt.Executable>
rbdock ($Id: //depot/dev/client3/rdock/2013.1/src/exe/rbdock.cxx#4 $)

>  <Rbt.Library>
libRbt.so (2013.1, Build901 2013/11/27)

>  <Rbt.Parameter_File>
/export/apps/rDock/src/rDock_2013.1_src/data/scripts/dock_solv.prm

>  <Rbt.Receptor>
prm/blind_docking_100.prm

>  <SCORE>
-12.2067

>  <SCORE.INTER>
-12.2067

>  <SCORE.INTER.CONST>
1

>  <SCORE.INTER.POLAR>
0

>  <SCORE.INTER.ROT>
0

>  <SCORE.INTER.SOLV>
16.2729

>  <SCORE.INTER.VDW>
-17.1621

>  <SCORE.INTER.norm>
-1.01722

>  <SCORE.INTRA>
0

>  <SCORE.INTRA.DIHEDRAL>
0

>  <SCORE.INTRA.DIHEDRAL.0>
0

>  <SCORE.INTRA.POLAR>
0

>  <SCORE.INTRA.POLAR.0>
0

>  <SCORE.INTRA.REPUL>
0

>  <SCORE.INTRA.REPUL.0>
0

>  <SCORE.INTRA.SOLV>
0

>  <SCORE.INTRA.SOLV.lig_0>
-48.1583

>  <SCORE.INTRA.VDW>
0

>  <SCORE.INTRA.VDW.0>
0

>  <SCORE.INTRA.norm>
0

>  <SCORE.RESTR>
0

>  <SCORE.RESTR.CAVITY>
0

>  <SCORE.RESTR.norm>
0

>  <SCORE.SYSTEM>
0

>  <SCORE.SYSTEM.CONST>
0

>  <SCORE.SYSTEM.DIHEDRAL>
0

>  <SCORE.SYSTEM.SOLV>
0

>  <SCORE.SYSTEM.norm>
0

>  <SCORE.heavy>
12

>  <SCORE.norm>
-1.01722

>  <RMSD>
3.671

$$$$
ligand
 OpenBabel11021811503D
libRbt.so/2013.1/901 2013/11/27
 12 13  0  0  0  0  0  0  0  0999 V2000
    6.4175   18.1061    5.3104 C   0  0  0  0  0  0  0  0  0  0  0  0
    4.9186   16.7605    4.1366 C   0  0  0  0  0  0  0  0  0  0  0  0
    6.8671   18.5635    6.4755 N   0  0  0  0  0  0  0  0  0  0  0  0
    3.8775   15.9232    4.0741 N   0  0  0  0  0  0  0  0  0  0  0  0
    5.3704   17.2524    5.2979 N   0  0  0  0  0  0  0  0  0  0  0  0
    7.0292   18.4789    4.1644 N   0  0  0  0  0  0  0  0  0  0  0  0
    5.6752   17.0421    0.5288 N   0  0  0  0  0  0  0  0  0  0  0  0
    6.7638   17.9262    0.5815 C   0  0  0  0  0  0  0  0  0  0  0  0
    7.2140   18.4200    1.8282 N   0  0  0  0  0  0  0  0  0  0  0  0
    6.6021   18.0169    2.9627 C   0  0  0  0  0  0  0  0  0  0  0  0
    5.5234   17.1274    2.9280 C   0  0  0  0  0  0  0  0  0  0  0  0
    5.0439   16.6281    1.7185 C   0  0  0  0  0  0  0  0  0  0  0  0
  1  3  1  0  0  0  0
  1  5  1  0  0  0  0
  1  6  2  0  0  0  0
  2  5  2  0  0  0  0
  2 11  1  0  0  0  0
  2  4  1  0  0  0  0
  6 10  1  0  0  0  0
  7  8  2  0  0  0  0
  7 12  1  0  0  0  0
  8  9  1  0  0  0  0
  9 10  2  0  0  0  0
 10 11  1  0  0  0  0
 11 12  2  0  0  0  0
M  END
>  <CHROM.1>
5.94679870,17.52755940,3.36412965,-1.55838871,-0.67969428,-1.66577388

>  <Name>
ligand

>  <RI>
0

>  <Rbt.Current_Directory>
/home/itssahil/PROJECTS/Mol_Feturizer/New_Systems/rnas/4LX5

>  <Rbt.Executable>
rbdock ($Id: //depot/dev/client3/rdock/2013.1/src/exe/rbdock.cxx#4 $)

>  <Rbt.Library>
libRbt.so (2013.1, Build901 2013/11/27)

>  <Rbt.Parameter_File>
/export/apps/rDock/src/rDock_2013.1_src/data/scripts/dock_solv.prm

>  <Rbt.Receptor>
prm/pocket_docking_4.prm

>  <SCORE>
-12.2214

>  <SCORE.INTER>
-12.2214

>  <SCORE.INTER.CONST>
1

>  <SCORE.INTER.POLAR>
0

>  <SCORE.INTER.ROT>
0

>  <SCORE.INTER.SOLV>
16.4646

>  <SCORE.INTER.VDW>
-17.2358

>  <SCORE.INTER.norm>
-1.01845

>  <SCORE.INTRA>
0

>  <SCORE.INTRA.DIHEDRAL>
0

>  <SCORE.INTRA.DIHEDRAL.0>
0

>  <SCORE.INTRA.POLAR>
0

>  <SCORE.INTRA.POLAR.0>
0

>  <SCORE.INTRA.REPUL>
0

>  <SCORE.INTRA.REPUL.0>
0

>  <SCORE.INTRA.SOLV>
0

>  <SCORE.INTRA.SOLV.lig_0>
-48.1583

>  <SCORE.INTRA.VDW>
0

>  <SCORE.INTRA.VDW.0>
0

>  <SCORE.INTRA.norm>
0

>  <SCORE.RESTR>
0

>  <SCORE.RESTR.CAVITY>
0

>  <SCORE.RESTR.norm>
0

>  <SCORE.SYSTEM>
0

>  <SCORE.SYSTEM.CONST>
0

>  <SCORE.SYSTEM.DIHEDRAL>
0

>  <SCORE.SYSTEM.SOLV>
0

>  <SCORE.SYSTEM.norm>
0

>  <SCORE.heavy>
12

>  <SCORE.norm>
-1.01845

>  <RMSD>
3.671

$$$$
ligand
 OpenBabel11021811503D
libRbt.so/2013.1/901 2013/11/27
 12 13  0  0  0  0  0  0  0  0999 V2000
    6.5265   18.2156    5.1518 C   0  0  0  0  0  0  0  0  0  0  0  0
    5.0012   16.8346    4.0559 C   0  0  0  0  0  0  0  0  0  0  0  0
    7.0101   18.7008    6.2918 N   0  0  0  0  0  0  0  0  0  0  0  0
    3.9654   15.9884    4.0449 N   0  0  0  0  0  0  0  0  0  0  0  0
    5.4865   17.3541    5.1913 N   0  0  0  0  0  0  0  0  0  0  0  0
    7.0975   18.5688    3.9788 N   0  0  0  0  0  0  0  0  0  0  0  0
    5.6376   17.0457    0.4202 N   0  0  0  0  0  0  0  0  0  0  0  0
    6.7202   17.9388    0.4189 C   0  0  0  0  0  0  0  0  0  0  0  0
    7.2067   18.4620    1.6396 N   0  0  0  0  0  0  0  0  0  0  0  0
    6.6353   18.0785    2.8016 C   0  0  0  0  0  0  0  0  0  0  0  0
    5.5632   17.1804    2.8208 C   0  0  0  0  0  0  0  0  0  0  0  0
    5.0488   16.6521    1.6382 C   0  0  0  0  0  0  0  0  0  0  0  0
  1  3  1  0  0  0  0
  1  5  1  0  0  0  0
  1  6  2  0  0  0  0
  2  5  2  0  0  0  0
  2 11  1  0  0  0  0
  2  4  1  0  0  0  0
  6 10  1  0  0  0  0
  7  8  2  0  0  0  0
  7 12  1  0  0  0  0
  8  9  1  0  0  0  0
  9 10  2  0  0  0  0
 10 11  1  0  0  0  0
 11 12  2  0  0  0  0
M  END
>  <CHROM.1>
5.99739127,17.59278594,3.23440161,-1.51733939,-0.69045172,-1.66074416

>  <Name>
ligand

>  <RI>
0

>  <Rbt.Current_Directory>
/home/itssahil/PROJECTS/Mol_Feturizer/New_Systems/rnas/4LX5

>  <Rbt.Executable>
rbdock ($Id: //depot/dev/client3/rdock/2013.1/src/exe/rbdock.cxx#4 $)

>  <Rbt.Library>
libRbt.so (2013.1, Build901 2013/11/27)

>  <Rbt.Parameter_File>
/export/apps/rDock/src/rDock_2013.1_src/data/scripts/dock_solv.prm

>  <Rbt.Receptor>
prm/pocket_docking_6.prm

>  <SCORE>
-12.2595

>  <SCORE.INTER>
-12.2595

>  <SCORE.INTER.CONST>
1

>  <SCORE.INTER.POLAR>
0

>  <SCORE.INTER.ROT>
0

>  <SCORE.INTER.SOLV>
15.7199

>  <SCORE.INTER.VDW>
-17.0129

>  <SCORE.INTER.norm>
-1.02162

>  <SCORE.INTRA>
0

>  <SCORE.INTRA.DIHEDRAL>
0

>  <SCORE.INTRA.DIHEDRAL.0>
0

>  <SCORE.INTRA.POLAR>
0

>  <SCORE.INTRA.POLAR.0>
0

>  <SCORE.INTRA.REPUL>
0

>  <SCORE.INTRA.REPUL.0>
0

>  <SCORE.INTRA.SOLV>
0

>  <SCORE.INTRA.SOLV.lig_0>
-48.1583

>  <SCORE.INTRA.VDW>
0

>  <SCORE.INTRA.VDW.0>
0

>  <SCORE.INTRA.norm>
0

>  <SCORE.RESTR>
0

>  <SCORE.RESTR.CAVITY>
0

>  <SCORE.RESTR.norm>
0

>  <SCORE.SYSTEM>
0

>  <SCORE.SYSTEM.CONST>
0

>  <SCORE.SYSTEM.DIHEDRAL>
0

>  <SCORE.SYSTEM.SOLV>
0

>  <SCORE.SYSTEM.norm>
0

>  <SCORE.heavy>
12

>  <SCORE.norm>
-1.02162

>  <RMSD>
3.672

$$$$
ligand
 OpenBabel11021811503D
libRbt.so/2013.1/901 2013/11/27
 12 13  0  0  0  0  0  0  0  0999 V2000
    6.5643   18.2885    5.1645 C   0  0  0  0  0  0  0  0  0  0  0  0
    5.0213   16.9071    4.0940 C   0  0  0  0  0  0  0  0  0  0  0  0
    7.0645   18.7762    6.2962 N   0  0  0  0  0  0  0  0  0  0  0  0
    3.9838   16.0630    4.0999 N   0  0  0  0  0  0  0  0  0  0  0  0
    5.5233   17.4292    5.2210 N   0  0  0  0  0  0  0  0  0  0  0  0
    7.1197   18.6371    3.9826 N   0  0  0  0  0  0  0  0  0  0  0  0
    5.6077   17.1061    0.4492 N   0  0  0  0  0  0  0  0  0  0  0  0
    6.6918   17.9972    0.4302 C   0  0  0  0  0  0  0  0  0  0  0  0
    7.1962   18.5231    1.6425 N   0  0  0  0  0  0  0  0  0  0  0  0
    6.6402   18.1441    2.8134 C   0  0  0  0  0  0  0  0  0  0  0  0
    5.5668   17.2482    2.8502 C   0  0  0  0  0  0  0  0  0  0  0  0
    5.0350   16.7174    1.6764 C   0  0  0  0  0  0  0  0  0  0  0  0
  1  3  1  0  0  0  0
  1  5  1  0  0  0  0
  1  6  2  0  0  0  0
  2  5  2  0  0  0  0
  2 11  1  0  0  0  0
  2  4  1  0  0  0  0
  6 10  1  0  0  0  0
  7  8  2  0  0  0  0
  7 12  1  0  0  0  0
  8  9  1  0  0  0  0
  9 10  2  0  0  0  0
 10 11  1  0  0  0  0
 11 12  2  0  0  0  0
M  END
>  <CHROM.1>
6.00745224,17.66097774,3.25647547,-1.49922261,-0.68971377,-1.65221500

>  <Name>
ligand

>  <RI>
0

>  <Rbt.Current_Directory>
/home/itssahil/PROJECTS/Mol_Feturizer/New_Systems/rnas/4LX5

>  <Rbt.Executable>
rbdock ($Id: //depot/dev/client3/rdock/2013.1/src/exe/rbdock.cxx#4 $)

>  <Rbt.Library>
libRbt.so (2013.1, Build901 2013/11/27)

>  <Rbt.Parameter_File>
/export/apps/rDock/src/rDock_2013.1_src/data/scripts/dock_solv.prm

>  <Rbt.Receptor>
prm/pocket_docking_8.prm

>  <SCORE>
-12.2047

>  <SCORE.INTER>
-12.2047

>  <SCORE.INTER.CONST>
1

>  <SCORE.INTER.POLAR>
0

>  <SCORE.INTER.ROT>
0

>  <SCORE.INTER.SOLV>
15.9219

>  <SCORE.INTER.VDW>
-17.0438

>  <SCORE.INTER.norm>
-1.01706

>  <SCORE.INTRA>
0

>  <SCORE.INTRA.DIHEDRAL>
0

>  <SCORE.INTRA.DIHEDRAL.0>
0

>  <SCORE.INTRA.POLAR>
0

>  <SCORE.INTRA.POLAR.0>
0

>  <SCORE.INTRA.REPUL>
0

>  <SCORE.INTRA.REPUL.0>
0

>  <SCORE.INTRA.SOLV>
0

>  <SCORE.INTRA.SOLV.lig_0>
-48.1583

>  <SCORE.INTRA.VDW>
0

>  <SCORE.INTRA.VDW.0>
0

>  <SCORE.INTRA.norm>
0

>  <SCORE.RESTR>
0

>  <SCORE.RESTR.CAVITY>
0

>  <SCORE.RESTR.norm>
0

>  <SCORE.SYSTEM>
0

>  <SCORE.SYSTEM.CONST>
0

>  <SCORE.SYSTEM.DIHEDRAL>
0

>  <SCORE.SYSTEM.SOLV>
0

>  <SCORE.SYSTEM.norm>
0

>  <SCORE.heavy>
12

>  <SCORE.norm>
-1.01706

>  <RMSD>
3.673

$$$$
ligand
 OpenBabel11021811503D
libRbt.so/2013.1/901 2013/11/27
 12 13  0  0  0  0  0  0  0  0999 V2000
    6.5074   18.2184    5.1635 C   0  0  0  0  0  0  0  0  0  0  0  0
    4.9807   16.8503    4.0532 C   0  0  0  0  0  0  0  0  0  0  0  0
    6.9865   18.6970    6.3081 N   0  0  0  0  0  0  0  0  0  0  0  0
    3.9397   16.0107    4.0328 N   0  0  0  0  0  0  0  0  0  0  0  0
    5.4618   17.3633    5.1934 N   0  0  0  0  0  0  0  0  0  0  0  0
    7.0883   18.5717    3.9954 N   0  0  0  0  0  0  0  0  0  0  0  0
    5.6423   17.0689    0.4225 N   0  0  0  0  0  0  0  0  0  0  0  0
    6.7304   17.9552    0.4311 C   0  0  0  0  0  0  0  0  0  0  0  0
    7.2121   18.4715    1.6566 N   0  0  0  0  0  0  0  0  0  0  0  0
    6.6307   18.0879    2.8137 C   0  0  0  0  0  0  0  0  0  0  0  0
    5.5530   17.1966    2.8230 C   0  0  0  0  0  0  0  0  0  0  0  0
    5.0430   16.6752    1.6354 C   0  0  0  0  0  0  0  0  0  0  0  0
  1  3  1  0  0  0  0
  1  5  1  0  0  0  0
  1  6  2  0  0  0  0
  2  5  2  0  0  0  0
  2 11  1  0  0  0  0
  2  4  1  0  0  0  0
  6 10  1  0  0  0  0
  7  8  2  0  0  0  0
  7 12  1  0  0  0  0
  8  9  1  0  0  0  0
  9 10  2  0  0  0  0
 10 11  1  0  0  0  0
 11 12  2  0  0  0  0
M  END
>  <CHROM.1>
5.98698763,17.60489618,3.24070179,-1.52504243,-0.68362254,-1.66247232

>  <Name>
ligand

>  <RI>
0

>  <Rbt.Current_Directory>
/home/itssahil/PROJECTS/Mol_Feturizer/New_Systems/rnas/4LX5

>  <Rbt.Executable>
rbdock ($Id: //depot/dev/client3/rdock/2013.1/src/exe/rbdock.cxx#4 $)

>  <Rbt.Library>
libRbt.so (2013.1, Build901 2013/11/27)

>  <Rbt.Parameter_File>
/export/apps/rDock/src/rDock_2013.1_src/data/scripts/dock_solv.prm

>  <Rbt.Receptor>
prm/blind_docking_40.prm

>  <SCORE>
-12.2762

>  <SCORE.INTER>
-12.2762

>  <SCORE.INTER.CONST>
1

>  <SCORE.INTER.POLAR>
0

>  <SCORE.INTER.ROT>
0

>  <SCORE.INTER.SOLV>
15.7753

>  <SCORE.INTER.VDW>
-17.0426

>  <SCORE.INTER.norm>
-1.02302

>  <SCORE.INTRA>
0

>  <SCORE.INTRA.DIHEDRAL>
0

>  <SCORE.INTRA.DIHEDRAL.0>
0

>  <SCORE.INTRA.POLAR>
0

>  <SCORE.INTRA.POLAR.0>
0

>  <SCORE.INTRA.REPUL>
0

>  <SCORE.INTRA.REPUL.0>
0

>  <SCORE.INTRA.SOLV>
0

>  <SCORE.INTRA.SOLV.lig_0>
-48.1583

>  <SCORE.INTRA.VDW>
0

>  <SCORE.INTRA.VDW.0>
0

>  <SCORE.INTRA.norm>
0

>  <SCORE.RESTR>
0

>  <SCORE.RESTR.CAVITY>
0

>  <SCORE.RESTR.norm>
0

>  <SCORE.SYSTEM>
0

>  <SCORE.SYSTEM.CONST>
0

>  <SCORE.SYSTEM.DIHEDRAL>
0

>  <SCORE.SYSTEM.SOLV>
0

>  <SCORE.SYSTEM.norm>
0

>  <SCORE.heavy>
12

>  <SCORE.norm>
-1.02302

>  <RMSD>
3.674

$$$$
ligand
 OpenBabel11021811503D
libRbt.so/2013.1/901 2013/11/27
 12 13  0  0  0  0  0  0  0  0999 V2000
    6.5144   18.2247    5.1635 C   0  0  0  0  0  0  0  0  0  0  0  0
    4.9902   16.8545    4.0526 C   0  0  0  0  0  0  0  0  0  0  0  0
    6.9933   18.7029    6.3085 N   0  0  0  0  0  0  0  0  0  0  0  0
    3.9512   16.0125    4.0318 N   0  0  0  0  0  0  0  0  0  0  0  0
    5.4709   17.3671    5.1932 N   0  0  0  0  0  0  0  0  0  0  0  0
    7.0937   18.5809    3.9955 N   0  0  0  0  0  0  0  0  0  0  0  0
    5.6486   17.0793    0.4217 N   0  0  0  0  0  0  0  0  0  0  0  0
    6.7346   17.9682    0.4306 C   0  0  0  0  0  0  0  0  0  0  0  0
    7.2160   18.4841    1.6565 N   0  0  0  0  0  0  0  0  0  0  0  0
    6.6364   18.0976    2.8135 C   0  0  0  0  0  0  0  0  0  0  0  0
    5.5607   17.2037    2.8224 C   0  0  0  0  0  0  0  0  0  0  0  0
    5.0511   16.6827    1.6345 C   0  0  0  0  0  0  0  0  0  0  0  0
  1  3  1  0  0  0  0
  1  5  1  0  0  0  0
  1  6  2  0  0  0  0
  2  5  2  0  0  0  0
  2 11  1  0  0  0  0
  2  4  1  0  0  0  0
  6 10  1  0  0  0  0
  7  8  2  0  0  0  0
  7 12  1  0  0  0  0
  8  9  1  0  0  0  0
  9 10  2  0  0  0  0
 10 11  1  0  0  0  0
 11 12  2  0  0  0  0
M  END
>  <CHROM.1>
5.99407579,17.61247924,3.24035304,-1.52438115,-0.68603843,-1.66075541

>  <Name>
ligand

>  <RI>
0

>  <Rbt.Current_Directory>
/home/itssahil/PROJECTS/Mol_Feturizer/New_Systems/rnas/4LX5

>  <Rbt.Executable>
rbdock ($Id: //depot/dev/client3/rdock/2013.1/src/exe/rbdock.cxx#4 $)

>  <Rbt.Library>
libRbt.so (2013.1, Build901 2013/11/27)

>  <Rbt.Parameter_File>
/export/apps/rDock/src/rDock_2013.1_src/data/scripts/dock_solv.prm

>  <Rbt.Receptor>
prm/blind_docking_60.prm

>  <SCORE>
-12.2758

>  <SCORE.INTER>
-12.2758

>  <SCORE.INTER.CONST>
1

>  <SCORE.INTER.POLAR>
0

>  <SCORE.INTER.ROT>
0

>  <SCORE.INTER.SOLV>
15.7742

>  <SCORE.INTER.VDW>
-17.042

>  <SCORE.INTER.norm>
-1.02298

>  <SCORE.INTRA>
0

>  <SCORE.INTRA.DIHEDRAL>
0

>  <SCORE.INTRA.DIHEDRAL.0>
0

>  <SCORE.INTRA.POLAR>
0

>  <SCORE.INTRA.POLAR.0>
0

>  <SCORE.INTRA.REPUL>
0

>  <SCORE.INTRA.REPUL.0>
0

>  <SCORE.INTRA.SOLV>
0

>  <SCORE.INTRA.SOLV.lig_0>
-48.1583

>  <SCORE.INTRA.VDW>
0

>  <SCORE.INTRA.VDW.0>
0

>  <SCORE.INTRA.norm>
0

>  <SCORE.RESTR>
0

>  <SCORE.RESTR.CAVITY>
0

>  <SCORE.RESTR.norm>
0

>  <SCORE.SYSTEM>
0

>  <SCORE.SYSTEM.CONST>
0

>  <SCORE.SYSTEM.DIHEDRAL>
0

>  <SCORE.SYSTEM.SOLV>
0

>  <SCORE.SYSTEM.norm>
0

>  <SCORE.heavy>
12

>  <SCORE.norm>
-1.02298

>  <RMSD>
3.674

$$$$
ligand
 OpenBabel11021811503D
libRbt.so/2013.1/901 2013/11/27
 12 13  0  0  0  0  0  0  0  0999 V2000
    6.4112   18.0981    5.2852 C   0  0  0  0  0  0  0  0  0  0  0  0
    4.9236   16.7701    4.0776 C   0  0  0  0  0  0  0  0  0  0  0  0
    6.8433   18.5460    6.4606 N   0  0  0  0  0  0  0  0  0  0  0  0
    3.8774   15.9411    3.9920 N   0  0  0  0  0  0  0  0  0  0  0  0
    5.3581   17.2525    5.2494 N   0  0  0  0  0  0  0  0  0  0  0  0
    7.0462   18.4722    4.1523 N   0  0  0  0  0  0  0  0  0  0  0  0
    5.7469   17.0646    0.4855 N   0  0  0  0  0  0  0  0  0  0  0  0
    6.8410   17.9401    0.5624 C   0  0  0  0  0  0  0  0  0  0  0  0
    7.2725   18.4239    1.8195 N   0  0  0  0  0  0  0  0  0  0  0  0
    6.6372   18.0197    2.9407 C   0  0  0  0  0  0  0  0  0  0  0  0
    5.5526   17.1387    2.8820 C   0  0  0  0  0  0  0  0  0  0  0  0
    5.0912   16.6492    1.6614 C   0  0  0  0  0  0  0  0  0  0  0  0
  1  3  1  0  0  0  0
  1  5  1  0  0  0  0
  1  6  2  0  0  0  0
  2  5  2  0  0  0  0
  2 11  1  0  0  0  0
  2  4  1  0  0  0  0
  6 10  1  0  0  0  0
  7  8  2  0  0  0  0
  7 12  1  0  0  0  0
  8  9  1  0  0  0  0
  9 10  2  0  0  0  0
 10 11  1  0  0  0  0
 11 12  2  0  0  0  0
M  END
>  <CHROM.1>
5.97115470,17.53328330,3.32774610,-1.58027400,-0.67036391,-1.67420707

>  <Name>
ligand

>  <RI>
0

>  <Rbt.Current_Directory>
/home/itssahil/PROJECTS/Mol_Feturizer/New_Systems/rnas/4LX5

>  <Rbt.Executable>
rbdock ($Id: //depot/dev/client3/rdock/2013.1/src/exe/rbdock.cxx#4 $)

>  <Rbt.Library>
libRbt.so (2013.1, Build901 2013/11/27)

>  <Rbt.Parameter_File>
/export/apps/rDock/src/rDock_2013.1_src/data/scripts/dock_solv.prm

>  <Rbt.Receptor>
prm/blind_docking_80.prm

>  <SCORE>
-12.2712

>  <SCORE.INTER>
-12.2712

>  <SCORE.INTER.CONST>
1

>  <SCORE.INTER.POLAR>
0

>  <SCORE.INTER.ROT>
0

>  <SCORE.INTER.SOLV>
16.2593

>  <SCORE.INTER.VDW>
-17.2005

>  <SCORE.INTER.norm>
-1.0226

>  <SCORE.INTRA>
0

>  <SCORE.INTRA.DIHEDRAL>
0

>  <SCORE.INTRA.DIHEDRAL.0>
0

>  <SCORE.INTRA.POLAR>
0

>  <SCORE.INTRA.POLAR.0>
0

>  <SCORE.INTRA.REPUL>
0

>  <SCORE.INTRA.REPUL.0>
0

>  <SCORE.INTRA.SOLV>
0

>  <SCORE.INTRA.SOLV.lig_0>
-48.1583

>  <SCORE.INTRA.VDW>
0

>  <SCORE.INTRA.VDW.0>
0

>  <SCORE.INTRA.norm>
0

>  <SCORE.RESTR>
0

>  <SCORE.RESTR.CAVITY>
0

>  <SCORE.RESTR.norm>
0

>  <SCORE.SYSTEM>
0

>  <SCORE.SYSTEM.CONST>
0

>  <SCORE.SYSTEM.DIHEDRAL>
0

>  <SCORE.SYSTEM.SOLV>
0

>  <SCORE.SYSTEM.norm>
0

>  <SCORE.heavy>
12

>  <SCORE.norm>
-1.0226

>  <RMSD>
3.674

$$$$
ligand
 OpenBabel11021811503D
libRbt.so/2013.1/901 2013/11/27
 12 13  0  0  0  0  0  0  0  0999 V2000
    6.4575   18.1891    5.4705 C   0  0  0  0  0  0  0  0  0  0  0  0
    4.9839   16.7850    4.3339 C   0  0  0  0  0  0  0  0  0  0  0  0
    6.8943   18.6907    6.6222 N   0  0  0  0  0  0  0  0  0  0  0  0
    3.9547   15.9317    4.2936 N   0  0  0  0  0  0  0  0  0  0  0  0
    5.4224   17.3210    5.4807 N   0  0  0  0  0  0  0  0  0  0  0  0
    7.0705   18.5326    4.3160 N   0  0  0  0  0  0  0  0  0  0  0  0
    5.7568   16.9584    0.7228 N   0  0  0  0  0  0  0  0  0  0  0  0
    6.8329   17.8588    0.7520 C   0  0  0  0  0  0  0  0  0  0  0  0
    7.2693   18.3995    1.9840 N   0  0  0  0  0  0  0  0  0  0  0  0
    6.6565   18.0255    3.1280 C   0  0  0  0  0  0  0  0  0  0  0  0
    5.5903   17.1204    3.1171 C   0  0  0  0  0  0  0  0  0  0  0  0
    5.1246   16.5750    1.9221 C   0  0  0  0  0  0  0  0  0  0  0  0
  1  3  1  0  0  0  0
  1  5  1  0  0  0  0
  1  6  2  0  0  0  0
  2  5  2  0  0  0  0
  2 11  1  0  0  0  0
  2  4  1  0  0  0  0
  6 10  1  0  0  0  0
  7  8  2  0  0  0  0
  7 12  1  0  0  0  0
  8  9  1  0  0  0  0
  9 10  2  0  0  0  0
 10 11  1  0  0  0  0
 11 12  2  0  0  0  0
M  END
>  <CHROM.1>
6.00575755,17.54049264,3.54191631,-1.56735887,-0.69278874,-1.70435874

>  <Name>
ligand

>  <RI>
0

>  <Rbt.Current_Directory>
/home/itssahil/PROJECTS/Mol_Feturizer/New_Systems/rnas/4LX5

>  <Rbt.Executable>
rbdock ($Id: //depot/dev/client3/rdock/2013.1/src/exe/rbdock.cxx#4 $)

>  <Rbt.Library>
libRbt.so (2013.1, Build901 2013/11/27)

>  <Rbt.Parameter_File>
/export/apps/rDock/src/rDock_2013.1_src/data/scripts/dock_solv.prm

>  <Rbt.Receptor>
prm/blind_docking_80.prm

>  <SCORE>
-12.2694

>  <SCORE.INTER>
-12.2694

>  <SCORE.INTER.CONST>
1

>  <SCORE.INTER.POLAR>
0

>  <SCORE.INTER.ROT>
0

>  <SCORE.INTER.SOLV>
17.6876

>  <SCORE.INTER.VDW>
-17.6755

>  <SCORE.INTER.norm>
-1.02245

>  <SCORE.INTRA>
0

>  <SCORE.INTRA.DIHEDRAL>
0

>  <SCORE.INTRA.DIHEDRAL.0>
0

>  <SCORE.INTRA.POLAR>
0

>  <SCORE.INTRA.POLAR.0>
0

>  <SCORE.INTRA.REPUL>
0

>  <SCORE.INTRA.REPUL.0>
0

>  <SCORE.INTRA.SOLV>
0

>  <SCORE.INTRA.SOLV.lig_0>
-48.1583

>  <SCORE.INTRA.VDW>
0

>  <SCORE.INTRA.VDW.0>
0

>  <SCORE.INTRA.norm>
0

>  <SCORE.RESTR>
0

>  <SCORE.RESTR.CAVITY>
0

>  <SCORE.RESTR.norm>
0

>  <SCORE.SYSTEM>
0

>  <SCORE.SYSTEM.CONST>
0

>  <SCORE.SYSTEM.DIHEDRAL>
0

>  <SCORE.SYSTEM.SOLV>
0

>  <SCORE.SYSTEM.norm>
0

>  <SCORE.heavy>
12

>  <SCORE.norm>
-1.02245

>  <RMSD>
3.674

$$$$
ligand
 OpenBabel11021811503D
libRbt.so/2013.1/901 2013/11/27
 12 13  0  0  0  0  0  0  0  0999 V2000
    6.5154   18.2216    5.1610 C   0  0  0  0  0  0  0  0  0  0  0  0
    4.9863   16.8555    4.0517 C   0  0  0  0  0  0  0  0  0  0  0  0
    6.9961   18.6992    6.3054 N   0  0  0  0  0  0  0  0  0  0  0  0
    3.9444   16.0170    4.0319 N   0  0  0  0  0  0  0  0  0  0  0  0
    5.4690   17.3676    5.1917 N   0  0  0  0  0  0  0  0  0  0  0  0
    7.0956   18.5746    3.9926 N   0  0  0  0  0  0  0  0  0  0  0  0
    5.6447   17.0746    0.4205 N   0  0  0  0  0  0  0  0  0  0  0  0
    6.7337   17.9598    0.4283 C   0  0  0  0  0  0  0  0  0  0  0  0
    7.2172   18.4752    1.6536 N   0  0  0  0  0  0  0  0  0  0  0  0
    6.6364   18.0918    2.8111 C   0  0  0  0  0  0  0  0  0  0  0  0
    5.5578   17.2016    2.8211 C   0  0  0  0  0  0  0  0  0  0  0  0
    5.0461   16.6812    1.6338 C   0  0  0  0  0  0  0  0  0  0  0  0
  1  3  1  0  0  0  0
  1  5  1  0  0  0  0
  1  6  2  0  0  0  0
  2  5  2  0  0  0  0
  2 11  1  0  0  0  0
  2  4  1  0  0  0  0
  6 10  1  0  0  0  0
  7  8  2  0  0  0  0
  7 12  1  0  0  0  0
  8  9  1  0  0  0  0
  9 10  2  0  0  0  0
 10 11  1  0  0  0  0
 11 12  2  0  0  0  0
M  END
>  <CHROM.1>
5.99258824,17.60928079,3.23853540,-1.52373452,-0.68264862,-1.66130016

>  <Name>
ligand

>  <RI>
0

>  <Rbt.Current_Directory>
/home/itssahil/PROJECTS/Mol_Feturizer/New_Systems/rnas/4LX5

>  <Rbt.Executable>
rbdock ($Id: //depot/dev/client3/rdock/2013.1/src/exe/rbdock.cxx#4 $)

>  <Rbt.Library>
libRbt.so (2013.1, Build901 2013/11/27)

>  <Rbt.Parameter_File>
/export/apps/rDock/src/rDock_2013.1_src/data/scripts/dock_solv.prm

>  <Rbt.Receptor>
prm/pocket_docking_6.prm

>  <SCORE>
-12.2791

>  <SCORE.INTER>
-12.2791

>  <SCORE.INTER.CONST>
1

>  <SCORE.INTER.POLAR>
0

>  <SCORE.INTER.ROT>
0

>  <SCORE.INTER.SOLV>
15.7528

>  <SCORE.INTER.VDW>
-17.037

>  <SCORE.INTER.norm>
-1.02326

>  <SCORE.INTRA>
0

>  <SCORE.INTRA.DIHEDRAL>
0

>  <SCORE.INTRA.DIHEDRAL.0>
0

>  <SCORE.INTRA.POLAR>
0

>  <SCORE.INTRA.POLAR.0>
0

>  <SCORE.INTRA.REPUL>
0

>  <SCORE.INTRA.REPUL.0>
0

>  <SCORE.INTRA.SOLV>
0

>  <SCORE.INTRA.SOLV.lig_0>
-48.1583

>  <SCORE.INTRA.VDW>
0

>  <SCORE.INTRA.VDW.0>
0

>  <SCORE.INTRA.norm>
0

>  <SCORE.RESTR>
0

>  <SCORE.RESTR.CAVITY>
0

>  <SCORE.RESTR.norm>
0

>  <SCORE.SYSTEM>
0

>  <SCORE.SYSTEM.CONST>
0

>  <SCORE.SYSTEM.DIHEDRAL>
0

>  <SCORE.SYSTEM.SOLV>
0

>  <SCORE.SYSTEM.norm>
0

>  <SCORE.heavy>
12

>  <SCORE.norm>
-1.02326

>  <RMSD>
3.674

$$$$
ligand
 OpenBabel11021811503D
libRbt.so/2013.1/901 2013/11/27
 12 13  0  0  0  0  0  0  0  0999 V2000
    6.4440   18.1368    5.2042 C   0  0  0  0  0  0  0  0  0  0  0  0
    4.9302   16.8005    4.0390 C   0  0  0  0  0  0  0  0  0  0  0  0
    6.8998   18.5954    6.3664 N   0  0  0  0  0  0  0  0  0  0  0  0
    3.8807   15.9733    3.9820 N   0  0  0  0  0  0  0  0  0  0  0  0
    5.3885   17.2936    5.1973 N   0  0  0  0  0  0  0  0  0  0  0  0
    7.0577   18.4980    4.0555 N   0  0  0  0  0  0  0  0  0  0  0  0
    5.6843   17.0570    0.4289 N   0  0  0  0  0  0  0  0  0  0  0  0
    6.7817   17.9306    0.4758 C   0  0  0  0  0  0  0  0  0  0  0  0
    7.2386   18.4259    1.7194 N   0  0  0  0  0  0  0  0  0  0  0  0
    6.6243   18.0345    2.8567 C   0  0  0  0  0  0  0  0  0  0  0  0
    5.5368   17.1556    2.8279 C   0  0  0  0  0  0  0  0  0  0  0  0
    5.0507   16.6551    1.6214 C   0  0  0  0  0  0  0  0  0  0  0  0
  1  3  1  0  0  0  0
  1  5  1  0  0  0  0
  1  6  2  0  0  0  0
  2  5  2  0  0  0  0
  2 11  1  0  0  0  0
  2  4  1  0  0  0  0
  6 10  1  0  0  0  0
  7  8  2  0  0  0  0
  7 12  1  0  0  0  0
  8  9  1  0  0  0  0
  9 10  2  0  0  0  0
 10 11  1  0  0  0  0
 11 12  2  0  0  0  0
M  END
>  <CHROM.1>
5.96478614,17.55358996,3.26142148,-1.55535752,-0.66996061,-1.66875002

>  <Name>
ligand

>  <RI>
0

>  <Rbt.Current_Directory>
/home/itssahil/PROJECTS/Mol_Feturizer/New_Systems/rnas/4LX5

>  <Rbt.Executable>
rbdock ($Id: //depot/dev/client3/rdock/2013.1/src/exe/rbdock.cxx#4 $)

>  <Rbt.Library>
libRbt.so (2013.1, Build901 2013/11/27)

>  <Rbt.Parameter_File>
/export/apps/rDock/src/rDock_2013.1_src/data/scripts/dock_solv.prm

>  <Rbt.Receptor>
prm/blind_docking_40.prm

>  <SCORE>
-12.3227

>  <SCORE.INTER>
-12.3227

>  <SCORE.INTER.CONST>
1

>  <SCORE.INTER.POLAR>
0

>  <SCORE.INTER.ROT>
0

>  <SCORE.INTER.SOLV>
15.8994

>  <SCORE.INTER.VDW>
-17.1149

>  <SCORE.INTER.norm>
-1.02689

>  <SCORE.INTRA>
0

>  <SCORE.INTRA.DIHEDRAL>
0

>  <SCORE.INTRA.DIHEDRAL.0>
0

>  <SCORE.INTRA.POLAR>
0

>  <SCORE.INTRA.POLAR.0>
0

>  <SCORE.INTRA.REPUL>
0

>  <SCORE.INTRA.REPUL.0>
0

>  <SCORE.INTRA.SOLV>
0

>  <SCORE.INTRA.SOLV.lig_0>
-48.1583

>  <SCORE.INTRA.VDW>
0

>  <SCORE.INTRA.VDW.0>
0

>  <SCORE.INTRA.norm>
0

>  <SCORE.RESTR>
0

>  <SCORE.RESTR.CAVITY>
0

>  <SCORE.RESTR.norm>
0

>  <SCORE.SYSTEM>
0

>  <SCORE.SYSTEM.CONST>
0

>  <SCORE.SYSTEM.DIHEDRAL>
0

>  <SCORE.SYSTEM.SOLV>
0

>  <SCORE.SYSTEM.norm>
0

>  <SCORE.heavy>
12

>  <SCORE.norm>
-1.02689

>  <RMSD>
3.675

$$$$
ligand
 OpenBabel11021811503D
libRbt.so/2013.1/901 2013/11/27
 12 13  0  0  0  0  0  0  0  0999 V2000
    6.4728   18.1407    5.2011 C   0  0  0  0  0  0  0  0  0  0  0  0
    4.9450   16.8122    4.0452 C   0  0  0  0  0  0  0  0  0  0  0  0
    6.9372   18.5979    6.3604 N   0  0  0  0  0  0  0  0  0  0  0  0
    3.8902   15.9913    3.9945 N   0  0  0  0  0  0  0  0  0  0  0  0
    5.4121   17.3039    5.2005 N   0  0  0  0  0  0  0  0  0  0  0  0
    7.0829   18.4968    4.0488 N   0  0  0  0  0  0  0  0  0  0  0  0
    5.6825   17.0597    0.4310 N   0  0  0  0  0  0  0  0  0  0  0  0
    6.7854   17.9267    0.4713 C   0  0  0  0  0  0  0  0  0  0  0  0
    7.2515   18.4207    1.7120 N   0  0  0  0  0  0  0  0  0  0  0  0
    6.6406   18.0344    2.8528 C   0  0  0  0  0  0  0  0  0  0  0  0
    5.5476   17.1621    2.8306 C   0  0  0  0  0  0  0  0  0  0  0  0
    5.0524   16.6631    1.6272 C   0  0  0  0  0  0  0  0  0  0  0  0
  1  3  1  0  0  0  0
  1  5  1  0  0  0  0
  1  6  2  0  0  0  0
  2  5  2  0  0  0  0
  2 11  1  0  0  0  0
  2  4  1  0  0  0  0
  6 10  1  0  0  0  0
  7  8  2  0  0  0  0
  7 12  1  0  0  0  0
  8  9  1  0  0  0  0
  9 10  2  0  0  0  0
 10 11  1  0  0  0  0
 11 12  2  0  0  0  0
M  END
>  <CHROM.1>
5.98021794,17.55802430,3.26145876,-1.54822686,-0.66437793,-1.66556518

>  <Name>
ligand

>  <RI>
0

>  <Rbt.Current_Directory>
/home/itssahil/PROJECTS/Mol_Feturizer/New_Systems/rnas/4LX5

>  <Rbt.Executable>
rbdock ($Id: //depot/dev/client3/rdock/2013.1/src/exe/rbdock.cxx#4 $)

>  <Rbt.Library>
libRbt.so (2013.1, Build901 2013/11/27)

>  <Rbt.Parameter_File>
/export/apps/rDock/src/rDock_2013.1_src/data/scripts/dock_solv.prm

>  <Rbt.Receptor>
prm/blind_docking_60.prm

>  <SCORE>
-12.3124

>  <SCORE.INTER>
-12.3124

>  <SCORE.INTER.CONST>
1

>  <SCORE.INTER.POLAR>
0

>  <SCORE.INTER.ROT>
0

>  <SCORE.INTER.SOLV>
15.8443

>  <SCORE.INTER.VDW>
-17.0897

>  <SCORE.INTER.norm>
-1.02603

>  <SCORE.INTRA>
0

>  <SCORE.INTRA.DIHEDRAL>
0

>  <SCORE.INTRA.DIHEDRAL.0>
0

>  <SCORE.INTRA.POLAR>
0

>  <SCORE.INTRA.POLAR.0>
0

>  <SCORE.INTRA.REPUL>
0

>  <SCORE.INTRA.REPUL.0>
0

>  <SCORE.INTRA.SOLV>
0

>  <SCORE.INTRA.SOLV.lig_0>
-48.1583

>  <SCORE.INTRA.VDW>
0

>  <SCORE.INTRA.VDW.0>
0

>  <SCORE.INTRA.norm>
0

>  <SCORE.RESTR>
0

>  <SCORE.RESTR.CAVITY>
0

>  <SCORE.RESTR.norm>
0

>  <SCORE.SYSTEM>
0

>  <SCORE.SYSTEM.CONST>
0

>  <SCORE.SYSTEM.DIHEDRAL>
0

>  <SCORE.SYSTEM.SOLV>
0

>  <SCORE.SYSTEM.norm>
0

>  <SCORE.heavy>
12

>  <SCORE.norm>
-1.02603

>  <RMSD>
3.675

$$$$
ligand
 OpenBabel11021811503D
libRbt.so/2013.1/901 2013/11/27
 12 13  0  0  0  0  0  0  0  0999 V2000
    6.4153   18.0914    5.2563 C   0  0  0  0  0  0  0  0  0  0  0  0
    4.8995   16.7847    4.0605 C   0  0  0  0  0  0  0  0  0  0  0  0
    6.8626   18.5335    6.4282 N   0  0  0  0  0  0  0  0  0  0  0  0
    3.8408   15.9710    3.9831 N   0  0  0  0  0  0  0  0  0  0  0  0
    5.3498   17.2612    5.2287 N   0  0  0  0  0  0  0  0  0  0  0  0
    7.0472   18.4558    4.1185 N   0  0  0  0  0  0  0  0  0  0  0  0
    5.7001   17.0657    0.4622 N   0  0  0  0  0  0  0  0  0  0  0  0
    6.8074   17.9253    0.5305 C   0  0  0  0  0  0  0  0  0  0  0  0
    7.2553   18.4033    1.7841 N   0  0  0  0  0  0  0  0  0  0  0  0
    6.6226   18.0088    2.9102 C   0  0  0  0  0  0  0  0  0  0  0  0
    5.5249   17.1436    2.8601 C   0  0  0  0  0  0  0  0  0  0  0  0
    5.0473   16.6605    1.6432 C   0  0  0  0  0  0  0  0  0  0  0  0
  1  3  1  0  0  0  0
  1  5  1  0  0  0  0
  1  6  2  0  0  0  0
  2  5  2  0  0  0  0
  2 11  1  0  0  0  0
  2  4  1  0  0  0  0
  6 10  1  0  0  0  0
  7  8  2  0  0  0  0
  7 12  1  0  0  0  0
  8  9  1  0  0  0  0
  9 10  2  0  0  0  0
 10 11  1  0  0  0  0
 11 12  2  0  0  0  0
M  END
>  <CHROM.1>
5.95245783,17.53227026,3.30244901,-1.56899554,-0.65662813,-1.66771515

>  <Name>
ligand

>  <RI>
0

>  <Rbt.Current_Directory>
/home/itssahil/PROJECTS/Mol_Feturizer/New_Systems/rnas/4LX5

>  <Rbt.Executable>
rbdock ($Id: //depot/dev/client3/rdock/2013.1/src/exe/rbdock.cxx#4 $)

>  <Rbt.Library>
libRbt.so (2013.1, Build901 2013/11/27)

>  <Rbt.Parameter_File>
/export/apps/rDock/src/rDock_2013.1_src/data/scripts/dock_solv.prm

>  <Rbt.Receptor>
prm/blind_docking_60.prm

>  <SCORE>
-12.2395

>  <SCORE.INTER>
-12.2395

>  <SCORE.INTER.CONST>
1

>  <SCORE.INTER.POLAR>
0

>  <SCORE.INTER.ROT>
0

>  <SCORE.INTER.SOLV>
16.11

>  <SCORE.INTER.VDW>
-17.1297

>  <SCORE.INTER.norm>
-1.01996

>  <SCORE.INTRA>
0

>  <SCORE.INTRA.DIHEDRAL>
0

>  <SCORE.INTRA.DIHEDRAL.0>
0

>  <SCORE.INTRA.POLAR>
0

>  <SCORE.INTRA.POLAR.0>
0

>  <SCORE.INTRA.REPUL>
0

>  <SCORE.INTRA.REPUL.0>
0

>  <SCORE.INTRA.SOLV>
0

>  <SCORE.INTRA.SOLV.lig_0>
-48.1583

>  <SCORE.INTRA.VDW>
0

>  <SCORE.INTRA.VDW.0>
0

>  <SCORE.INTRA.norm>
0

>  <SCORE.RESTR>
0

>  <SCORE.RESTR.CAVITY>
0

>  <SCORE.RESTR.norm>
0

>  <SCORE.SYSTEM>
0

>  <SCORE.SYSTEM.CONST>
0

>  <SCORE.SYSTEM.DIHEDRAL>
0

>  <SCORE.SYSTEM.SOLV>
0

>  <SCORE.SYSTEM.norm>
0

>  <SCORE.heavy>
12

>  <SCORE.norm>
-1.01996

>  <RMSD>
3.676

$$$$
ligand
 OpenBabel11021811503D
libRbt.so/2013.1/901 2013/11/27
 12 13  0  0  0  0  0  0  0  0999 V2000
    6.4183   18.1288    5.2124 C   0  0  0  0  0  0  0  0  0  0  0  0
    4.9113   16.7931    4.0378 C   0  0  0  0  0  0  0  0  0  0  0  0
    6.8682   18.5859    6.3775 N   0  0  0  0  0  0  0  0  0  0  0  0
    3.8628   15.9650    3.9744 N   0  0  0  0  0  0  0  0  0  0  0  0
    5.3636   17.2846    5.1990 N   0  0  0  0  0  0  0  0  0  0  0  0
    7.0371   18.4925    4.0672 N   0  0  0  0  0  0  0  0  0  0  0  0
    5.6823   17.0564    0.4317 N   0  0  0  0  0  0  0  0  0  0  0  0
    6.7787   17.9308    0.4853 C   0  0  0  0  0  0  0  0  0  0  0  0
    7.2292   18.4245    1.7319 N   0  0  0  0  0  0  0  0  0  0  0  0
    6.6098   18.0306    2.8656 C   0  0  0  0  0  0  0  0  0  0  0  0
    5.5233   17.1507    2.8301 C   0  0  0  0  0  0  0  0  0  0  0  0
    5.0434   16.6518    1.6205 C   0  0  0  0  0  0  0  0  0  0  0  0
  1  3  1  0  0  0  0
  1  5  1  0  0  0  0
  1  6  2  0  0  0  0
  2  5  2  0  0  0  0
  2 11  1  0  0  0  0
  2  4  1  0  0  0  0
  6 10  1  0  0  0  0
  7  8  2  0  0  0  0
  7 12  1  0  0  0  0
  8  9  1  0  0  0  0
  9 10  2  0  0  0  0
 10 11  1  0  0  0  0
 11 12  2  0  0  0  0
M  END
>  <CHROM.1>
5.94883854,17.54841568,3.26636351,-1.56150580,-0.67041128,-1.67088934

>  <Name>
ligand

>  <RI>
0

>  <Rbt.Current_Directory>
/home/itssahil/PROJECTS/Mol_Feturizer/New_Systems/rnas/4LX5

>  <Rbt.Executable>
rbdock ($Id: //depot/dev/client3/rdock/2013.1/src/exe/rbdock.cxx#4 $)

>  <Rbt.Library>
libRbt.so (2013.1, Build901 2013/11/27)

>  <Rbt.Parameter_File>
/export/apps/rDock/src/rDock_2013.1_src/data/scripts/dock_solv.prm

>  <Rbt.Receptor>
prm/pocket_docking_7.prm

>  <SCORE>
-12.285

>  <SCORE.INTER>
-12.285

>  <SCORE.INTER.CONST>
1

>  <SCORE.INTER.POLAR>
0

>  <SCORE.INTER.ROT>
0

>  <SCORE.INTER.SOLV>
15.9715

>  <SCORE.INTER.VDW>
-17.1138

>  <SCORE.INTER.norm>
-1.02375

>  <SCORE.INTRA>
0

>  <SCORE.INTRA.DIHEDRAL>
0

>  <SCORE.INTRA.DIHEDRAL.0>
0

>  <SCORE.INTRA.POLAR>
0

>  <SCORE.INTRA.POLAR.0>
0

>  <SCORE.INTRA.REPUL>
0

>  <SCORE.INTRA.REPUL.0>
0

>  <SCORE.INTRA.SOLV>
0

>  <SCORE.INTRA.SOLV.lig_0>
-48.1583

>  <SCORE.INTRA.VDW>
0

>  <SCORE.INTRA.VDW.0>
0

>  <SCORE.INTRA.norm>
0

>  <SCORE.RESTR>
0

>  <SCORE.RESTR.CAVITY>
0

>  <SCORE.RESTR.norm>
0

>  <SCORE.SYSTEM>
0

>  <SCORE.SYSTEM.CONST>
0

>  <SCORE.SYSTEM.DIHEDRAL>
0

>  <SCORE.SYSTEM.SOLV>
0

>  <SCORE.SYSTEM.norm>
0

>  <SCORE.heavy>
12

>  <SCORE.norm>
-1.02375

>  <RMSD>
3.676

$$$$
ligand
 OpenBabel11021811503D
libRbt.so/2013.1/901 2013/11/27
 12 13  0  0  0  0  0  0  0  0999 V2000
    6.4741   18.2848    5.1445 C   0  0  0  0  0  0  0  0  0  0  0  0
    4.9776   16.8697    4.0523 C   0  0  0  0  0  0  0  0  0  0  0  0
    6.9414   18.7897    6.2827 N   0  0  0  0  0  0  0  0  0  0  0  0
    3.9541   16.0086    4.0427 N   0  0  0  0  0  0  0  0  0  0  0  0
    5.4463   17.4089    5.1855 N   0  0  0  0  0  0  0  0  0  0  0  0
    7.0495   18.6329    3.9721 N   0  0  0  0  0  0  0  0  0  0  0  0
    5.6404   17.0490    0.4196 N   0  0  0  0  0  0  0  0  0  0  0  0
    6.7100   17.9576    0.4167 C   0  0  0  0  0  0  0  0  0  0  0  0
    7.1791   18.5014    1.6352 N   0  0  0  0  0  0  0  0  0  0  0  0
    6.6038   18.1228    2.7970 C   0  0  0  0  0  0  0  0  0  0  0  0
    5.5446   17.2097    2.8178 C   0  0  0  0  0  0  0  0  0  0  0  0
    5.0474   16.6608    1.6373 C   0  0  0  0  0  0  0  0  0  0  0  0
  1  3  1  0  0  0  0
  1  5  1  0  0  0  0
  1  6  2  0  0  0  0
  2  5  2  0  0  0  0
  2 11  1  0  0  0  0
  2  4  1  0  0  0  0
  6 10  1  0  0  0  0
  7  8  2  0  0  0  0
  7 12  1  0  0  0  0
  8  9  1  0  0  0  0
  9 10  2  0  0  0  0
 10 11  1  0  0  0  0
 11 12  2  0  0  0  0
M  END
>  <CHROM.1>
5.96947645,17.63288007,3.23015432,-1.52960734,-0.70391874,-1.67992906

>  <Name>
ligand

>  <RI>
0

>  <Rbt.Current_Directory>
/home/itssahil/PROJECTS/Mol_Feturizer/New_Systems/rnas/4LX5

>  <Rbt.Executable>
rbdock ($Id: //depot/dev/client3/rdock/2013.1/src/exe/rbdock.cxx#4 $)

>  <Rbt.Library>
libRbt.so (2013.1, Build901 2013/11/27)

>  <Rbt.Parameter_File>
/export/apps/rDock/src/rDock_2013.1_src/data/scripts/dock_solv.prm

>  <Rbt.Receptor>
prm/pocket_docking_7.prm

>  <SCORE>
-12.2521

>  <SCORE.INTER>
-12.2521

>  <SCORE.INTER.CONST>
1

>  <SCORE.INTER.POLAR>
0

>  <SCORE.INTER.ROT>
0

>  <SCORE.INTER.SOLV>
15.9455

>  <SCORE.INTER.VDW>
-17.0832

>  <SCORE.INTER.norm>
-1.02101

>  <SCORE.INTRA>
0

>  <SCORE.INTRA.DIHEDRAL>
0

>  <SCORE.INTRA.DIHEDRAL.0>
0

>  <SCORE.INTRA.POLAR>
0

>  <SCORE.INTRA.POLAR.0>
0

>  <SCORE.INTRA.REPUL>
0

>  <SCORE.INTRA.REPUL.0>
0

>  <SCORE.INTRA.SOLV>
0

>  <SCORE.INTRA.SOLV.lig_0>
-48.1583

>  <SCORE.INTRA.VDW>
0

>  <SCORE.INTRA.VDW.0>
0

>  <SCORE.INTRA.norm>
0

>  <SCORE.RESTR>
0

>  <SCORE.RESTR.CAVITY>
0

>  <SCORE.RESTR.norm>
0

>  <SCORE.SYSTEM>
0

>  <SCORE.SYSTEM.CONST>
0

>  <SCORE.SYSTEM.DIHEDRAL>
0

>  <SCORE.SYSTEM.SOLV>
0

>  <SCORE.SYSTEM.norm>
0

>  <SCORE.heavy>
12

>  <SCORE.norm>
-1.02101

>  <RMSD>
3.676

$$$$
ligand
 OpenBabel11021811503D
libRbt.so/2013.1/901 2013/11/27
 12 13  0  0  0  0  0  0  0  0999 V2000
    6.4553   18.1456    5.1962 C   0  0  0  0  0  0  0  0  0  0  0  0
    4.9467   16.8106    4.0228 C   0  0  0  0  0  0  0  0  0  0  0  0
    6.9026   18.6069    6.3607 N   0  0  0  0  0  0  0  0  0  0  0  0
    3.8945   15.9872    3.9597 N   0  0  0  0  0  0  0  0  0  0  0  0
    5.3967   17.3063    5.1832 N   0  0  0  0  0  0  0  0  0  0  0  0
    7.0806   18.5000    4.0516 N   0  0  0  0  0  0  0  0  0  0  0  0
    5.7337   17.0503    0.4185 N   0  0  0  0  0  0  0  0  0  0  0  0
    6.8340   17.9198    0.4718 C   0  0  0  0  0  0  0  0  0  0  0  0
    7.2818   18.4181    1.7175 N   0  0  0  0  0  0  0  0  0  0  0  0
    6.6560   18.0335    2.8508 C   0  0  0  0  0  0  0  0  0  0  0  0
    5.5653   17.1586    2.8157 C   0  0  0  0  0  0  0  0  0  0  0  0
    5.0880   16.6554    1.6069 C   0  0  0  0  0  0  0  0  0  0  0  0
  1  3  1  0  0  0  0
  1  5  1  0  0  0  0
  1  6  2  0  0  0  0
  2  5  2  0  0  0  0
  2 11  1  0  0  0  0
  2  4  1  0  0  0  0
  6 10  1  0  0  0  0
  7  8  2  0  0  0  0
  7 12  1  0  0  0  0
  8  9  1  0  0  0  0
  9 10  2  0  0  0  0
 10 11  1  0  0  0  0
 11 12  2  0  0  0  0
M  END
>  <CHROM.1>
5.99101591,17.55666808,3.25148774,-1.56605640,-0.66520262,-1.67920857

>  <Name>
ligand

>  <RI>
0

>  <Rbt.Current_Directory>
/home/itssahil/PROJECTS/Mol_Feturizer/New_Systems/rnas/4LX5

>  <Rbt.Executable>
rbdock ($Id: //depot/dev/client3/rdock/2013.1/src/exe/rbdock.cxx#4 $)

>  <Rbt.Library>
libRbt.so (2013.1, Build901 2013/11/27)

>  <Rbt.Parameter_File>
/export/apps/rDock/src/rDock_2013.1_src/data/scripts/dock_solv.prm

>  <Rbt.Receptor>
prm/blind_docking_40.prm

>  <SCORE>
-12.2827

>  <SCORE.INTER>
-12.2827

>  <SCORE.INTER.CONST>
1

>  <SCORE.INTER.POLAR>
0

>  <SCORE.INTER.ROT>
0

>  <SCORE.INTER.SOLV>
15.8235

>  <SCORE.INTER.VDW>
-17.063

>  <SCORE.INTER.norm>
-1.02356

>  <SCORE.INTRA>
0

>  <SCORE.INTRA.DIHEDRAL>
0

>  <SCORE.INTRA.DIHEDRAL.0>
0

>  <SCORE.INTRA.POLAR>
0

>  <SCORE.INTRA.POLAR.0>
0

>  <SCORE.INTRA.REPUL>
0

>  <SCORE.INTRA.REPUL.0>
0

>  <SCORE.INTRA.SOLV>
0

>  <SCORE.INTRA.SOLV.lig_0>
-48.1583

>  <SCORE.INTRA.VDW>
0

>  <SCORE.INTRA.VDW.0>
0

>  <SCORE.INTRA.norm>
0

>  <SCORE.RESTR>
0

>  <SCORE.RESTR.CAVITY>
0

>  <SCORE.RESTR.norm>
0

>  <SCORE.SYSTEM>
0

>  <SCORE.SYSTEM.CONST>
0

>  <SCORE.SYSTEM.DIHEDRAL>
0

>  <SCORE.SYSTEM.SOLV>
0

>  <SCORE.SYSTEM.norm>
0

>  <SCORE.heavy>
12

>  <SCORE.norm>
-1.02356

>  <RMSD>
3.677

$$$$
ligand
 OpenBabel11021811503D
libRbt.so/2013.1/901 2013/11/27
 12 13  0  0  0  0  0  0  0  0999 V2000
    6.5105   18.2995    5.0691 C   0  0  0  0  0  0  0  0  0  0  0  0
    4.9707   16.9079    4.0073 C   0  0  0  0  0  0  0  0  0  0  0  0
    7.0077   18.7977    6.1975 N   0  0  0  0  0  0  0  0  0  0  0  0
    3.9333   16.0636    4.0183 N   0  0  0  0  0  0  0  0  0  0  0  0
    5.4696   17.4405    5.1308 N   0  0  0  0  0  0  0  0  0  0  0  0
    7.0691   18.6371    3.8855 N   0  0  0  0  0  0  0  0  0  0  0  0
    5.5669   17.0730    0.3625 N   0  0  0  0  0  0  0  0  0  0  0  0
    6.6509   17.9640    0.3381 C   0  0  0  0  0  0  0  0  0  0  0  0
    7.1519   18.5013    1.5468 N   0  0  0  0  0  0  0  0  0  0  0  0
    6.5928   18.1332    2.7197 C   0  0  0  0  0  0  0  0  0  0  0  0
    5.5195   17.2375    2.7619 C   0  0  0  0  0  0  0  0  0  0  0  0
    4.9910   16.6956    1.5917 C   0  0  0  0  0  0  0  0  0  0  0  0
  1  3  1  0  0  0  0
  1  5  1  0  0  0  0
  1  6  2  0  0  0  0
  2  5  2  0  0  0  0
  2 11  1  0  0  0  0
  2  4  1  0  0  0  0
  6 10  1  0  0  0  0
  7  8  2  0  0  0  0
  7 12  1  0  0  0  0
  8  9  1  0  0  0  0
  9 10  2  0  0  0  0
 10 11  1  0  0  0  0
 11 12  2  0  0  0  0
M  END
>  <CHROM.1>
5.95897443,17.65407489,3.16551106,-1.50273546,-0.68965052,-1.66377114

>  <Name>
ligand

>  <RI>
0

>  <Rbt.Current_Directory>
/home/itssahil/PROJECTS/Mol_Feturizer/New_Systems/rnas/4LX5

>  <Rbt.Executable>
rbdock ($Id: //depot/dev/client3/rdock/2013.1/src/exe/rbdock.cxx#4 $)

>  <Rbt.Library>
libRbt.so (2013.1, Build901 2013/11/27)

>  <Rbt.Parameter_File>
/export/apps/rDock/src/rDock_2013.1_src/data/scripts/dock_solv.prm

>  <Rbt.Receptor>
prm/pocket_docking_8.prm

>  <SCORE>
-12.2416

>  <SCORE.INTER>
-12.2416

>  <SCORE.INTER.CONST>
1

>  <SCORE.INTER.POLAR>
0

>  <SCORE.INTER.ROT>
0

>  <SCORE.INTER.SOLV>
15.5469

>  <SCORE.INTER.VDW>
-16.9434

>  <SCORE.INTER.norm>
-1.02014

>  <SCORE.INTRA>
0

>  <SCORE.INTRA.DIHEDRAL>
0

>  <SCORE.INTRA.DIHEDRAL.0>
0

>  <SCORE.INTRA.POLAR>
0

>  <SCORE.INTRA.POLAR.0>
0

>  <SCORE.INTRA.REPUL>
0

>  <SCORE.INTRA.REPUL.0>
0

>  <SCORE.INTRA.SOLV>
0

>  <SCORE.INTRA.SOLV.lig_0>
-48.1583

>  <SCORE.INTRA.VDW>
0

>  <SCORE.INTRA.VDW.0>
0

>  <SCORE.INTRA.norm>
0

>  <SCORE.RESTR>
0

>  <SCORE.RESTR.CAVITY>
0

>  <SCORE.RESTR.norm>
0

>  <SCORE.SYSTEM>
0

>  <SCORE.SYSTEM.CONST>
0

>  <SCORE.SYSTEM.DIHEDRAL>
0

>  <SCORE.SYSTEM.SOLV>
0

>  <SCORE.SYSTEM.norm>
0

>  <SCORE.heavy>
12

>  <SCORE.norm>
-1.02014

>  <RMSD>
3.680

$$$$
ligand
 OpenBabel11021811503D
libRbt.so/2013.1/901 2013/11/27
 12 13  0  0  0  0  0  0  0  0999 V2000
    6.4616   18.2989    5.1391 C   0  0  0  0  0  0  0  0  0  0  0  0
    4.9722   16.8825    4.0390 C   0  0  0  0  0  0  0  0  0  0  0  0
    6.9168   18.8106    6.2792 N   0  0  0  0  0  0  0  0  0  0  0  0
    3.9445   16.0265    4.0230 N   0  0  0  0  0  0  0  0  0  0  0  0
    5.4289   17.4285    5.1739 N   0  0  0  0  0  0  0  0  0  0  0  0
    7.0539   18.6346    3.9716 N   0  0  0  0  0  0  0  0  0  0  0  0
    5.6827   17.0291    0.4139 N   0  0  0  0  0  0  0  0  0  0  0  0
    6.7570   17.9322    0.4176 C   0  0  0  0  0  0  0  0  0  0  0  0
    7.2130   18.4835    1.6377 N   0  0  0  0  0  0  0  0  0  0  0  0
    6.6209   18.1172    2.7949 C   0  0  0  0  0  0  0  0  0  0  0  0
    5.5568   17.2096    2.8093 C   0  0  0  0  0  0  0  0  0  0  0  0
    5.0721   16.6537    1.6269 C   0  0  0  0  0  0  0  0  0  0  0  0
  1  3  1  0  0  0  0
  1  5  1  0  0  0  0
  1  6  2  0  0  0  0
  2  5  2  0  0  0  0
  2 11  1  0  0  0  0
  2  4  1  0  0  0  0
  6 10  1  0  0  0  0
  7  8  2  0  0  0  0
  7 12  1  0  0  0  0
  8  9  1  0  0  0  0
  9 10  2  0  0  0  0
 10 11  1  0  0  0  0
 11 12  2  0  0  0  0
M  END
>  <CHROM.1>
5.97847358,17.63401040,3.22371116,-1.54563992,-0.69736415,-1.69833048

>  <Name>
ligand

>  <RI>
0

>  <Rbt.Current_Directory>
/home/itssahil/PROJECTS/Mol_Feturizer/New_Systems/rnas/4LX5

>  <Rbt.Executable>
rbdock ($Id: //depot/dev/client3/rdock/2013.1/src/exe/rbdock.cxx#4 $)

>  <Rbt.Library>
libRbt.so (2013.1, Build901 2013/11/27)

>  <Rbt.Parameter_File>
/export/apps/rDock/src/rDock_2013.1_src/data/scripts/dock_solv.prm

>  <Rbt.Receptor>
prm/pocket_docking_8.prm

>  <SCORE>
-12.2476

>  <SCORE.INTER>
-12.2476

>  <SCORE.INTER.CONST>
1

>  <SCORE.INTER.POLAR>
0

>  <SCORE.INTER.ROT>
0

>  <SCORE.INTER.SOLV>
15.9453

>  <SCORE.INTER.VDW>
-17.0802

>  <SCORE.INTER.norm>
-1.02064

>  <SCORE.INTRA>
0

>  <SCORE.INTRA.DIHEDRAL>
0

>  <SCORE.INTRA.DIHEDRAL.0>
0

>  <SCORE.INTRA.POLAR>
0

>  <SCORE.INTRA.POLAR.0>
0

>  <SCORE.INTRA.REPUL>
0

>  <SCORE.INTRA.REPUL.0>
0

>  <SCORE.INTRA.SOLV>
0

>  <SCORE.INTRA.SOLV.lig_0>
-48.1583

>  <SCORE.INTRA.VDW>
0

>  <SCORE.INTRA.VDW.0>
0

>  <SCORE.INTRA.norm>
0

>  <SCORE.RESTR>
0

>  <SCORE.RESTR.CAVITY>
0

>  <SCORE.RESTR.norm>
0

>  <SCORE.SYSTEM>
0

>  <SCORE.SYSTEM.CONST>
0

>  <SCORE.SYSTEM.DIHEDRAL>
0

>  <SCORE.SYSTEM.SOLV>
0

>  <SCORE.SYSTEM.norm>
0

>  <SCORE.heavy>
12

>  <SCORE.norm>
-1.02064

>  <RMSD>
3.680

$$$$
ligand
 OpenBabel11021811503D
libRbt.so/2013.1/901 2013/11/27
 12 13  0  0  0  0  0  0  0  0999 V2000
    6.4163   18.3126    5.1675 C   0  0  0  0  0  0  0  0  0  0  0  0
    4.9542   16.8958    4.0318 C   0  0  0  0  0  0  0  0  0  0  0  0
    6.8469   18.8210    6.3186 N   0  0  0  0  0  0  0  0  0  0  0  0
    3.9301   16.0364    3.9917 N   0  0  0  0  0  0  0  0  0  0  0  0
    5.3862   17.4386    5.1779 N   0  0  0  0  0  0  0  0  0  0  0  0
    7.0306   18.6555    4.0135 N   0  0  0  0  0  0  0  0  0  0  0  0
    5.7364   17.0606    0.4223 N   0  0  0  0  0  0  0  0  0  0  0  0
    6.8072   17.9674    0.4513 C   0  0  0  0  0  0  0  0  0  0  0  0
    7.2368   18.5150    1.6826 N   0  0  0  0  0  0  0  0  0  0  0  0
    6.6230   18.1416    2.8262 C   0  0  0  0  0  0  0  0  0  0  0  0
    5.5621   17.2303    2.8155 C   0  0  0  0  0  0  0  0  0  0  0  0
    5.1030   16.6778    1.6213 C   0  0  0  0  0  0  0  0  0  0  0  0
  1  3  1  0  0  0  0
  1  5  1  0  0  0  0
  1  6  2  0  0  0  0
  2  5  2  0  0  0  0
  2 11  1  0  0  0  0
  2  4  1  0  0  0  0
  6 10  1  0  0  0  0
  7  8  2  0  0  0  0
  7 12  1  0  0  0  0
  8  9  1  0  0  0  0
  9 10  2  0  0  0  0
 10 11  1  0  0  0  0
 11 12  2  0  0  0  0
M  END
>  <CHROM.1>
5.97389426,17.65437793,3.24002545,-1.57207290,-0.69817279,-1.71101847

>  <Name>
ligand

>  <RI>
0

>  <Rbt.Current_Directory>
/home/itssahil/PROJECTS/Mol_Feturizer/New_Systems/rnas/4LX5

>  <Rbt.Executable>
rbdock ($Id: //depot/dev/client3/rdock/2013.1/src/exe/rbdock.cxx#4 $)

>  <Rbt.Library>
libRbt.so (2013.1, Build901 2013/11/27)

>  <Rbt.Parameter_File>
/export/apps/rDock/src/rDock_2013.1_src/data/scripts/dock_solv.prm

>  <Rbt.Receptor>
prm/pocket_docking_5.prm

>  <SCORE>
-12.301

>  <SCORE.INTER>
-12.301

>  <SCORE.INTER.CONST>
1

>  <SCORE.INTER.POLAR>
0

>  <SCORE.INTER.ROT>
0

>  <SCORE.INTER.SOLV>
16.1254

>  <SCORE.INTER.VDW>
-17.1758

>  <SCORE.INTER.norm>
-1.02509

>  <SCORE.INTRA>
0

>  <SCORE.INTRA.DIHEDRAL>
0

>  <SCORE.INTRA.DIHEDRAL.0>
0

>  <SCORE.INTRA.POLAR>
0

>  <SCORE.INTRA.POLAR.0>
0

>  <SCORE.INTRA.REPUL>
0

>  <SCORE.INTRA.REPUL.0>
0

>  <SCORE.INTRA.SOLV>
0

>  <SCORE.INTRA.SOLV.lig_0>
-48.1583

>  <SCORE.INTRA.VDW>
0

>  <SCORE.INTRA.VDW.0>
0

>  <SCORE.INTRA.norm>
0

>  <SCORE.RESTR>
0

>  <SCORE.RESTR.CAVITY>
0

>  <SCORE.RESTR.norm>
0

>  <SCORE.SYSTEM>
0

>  <SCORE.SYSTEM.CONST>
0

>  <SCORE.SYSTEM.DIHEDRAL>
0

>  <SCORE.SYSTEM.SOLV>
0

>  <SCORE.SYSTEM.norm>
0

>  <SCORE.heavy>
12

>  <SCORE.norm>
-1.02509

>  <RMSD>
3.683

$$$$
ligand
 OpenBabel11021811503D
libRbt.so/2013.1/901 2013/11/27
 12 13  0  0  0  0  0  0  0  0999 V2000
    6.4671   19.0164    5.0090 C   0  0  0  0  0  0  0  0  0  0  0  0
    6.8534   17.9242    2.9859 C   0  0  0  0  0  0  0  0  0  0  0  0
    6.6603   20.0786    5.7858 N   0  0  0  0  0  0  0  0  0  0  0  0
    7.4251   17.8321    1.7803 N   0  0  0  0  0  0  0  0  0  0  0  0
    7.0558   18.9736    3.7937 N   0  0  0  0  0  0  0  0  0  0  0  0
    5.6668   18.0136    5.4339 N   0  0  0  0  0  0  0  0  0  0  0  0
    5.0184   14.7150    3.0228 N   0  0  0  0  0  0  0  0  0  0  0  0
    4.4193   14.7971    4.2892 C   0  0  0  0  0  0  0  0  0  0  0  0
    4.6541   15.9243    5.1108 N   0  0  0  0  0  0  0  0  0  0  0  0
    5.4396   16.9249    4.6573 C   0  0  0  0  0  0  0  0  0  0  0  0
    6.0347   16.8636    3.3931 C   0  0  0  0  0  0  0  0  0  0  0  0
    5.8362   15.7646    2.5594 C   0  0  0  0  0  0  0  0  0  0  0  0
  1  3  1  0  0  0  0
  1  5  1  0  0  0  0
  1  6  2  0  0  0  0
  2  5  2  0  0  0  0
  2 11  1  0  0  0  0
  2  4  1  0  0  0  0
  6 10  1  0  0  0  0
  7  8  2  0  0  0  0
  7 12  1  0  0  0  0
  8  9  1  0  0  0  0
  9 10  2  0  0  0  0
 10 11  1  0  0  0  0
 11 12  2  0  0  0  0
M  END
>  <CHROM.1>
5.97004835,17.26280270,3.99809089,0.88654043,0.91965824,0.84375802

>  <Name>
ligand

>  <RI>
0

>  <Rbt.Current_Directory>
/home/itssahil/PROJECTS/Mol_Feturizer/New_Systems/rnas/4LX5

>  <Rbt.Executable>
rbdock ($Id: //depot/dev/client3/rdock/2013.1/src/exe/rbdock.cxx#4 $)

>  <Rbt.Library>
libRbt.so (2013.1, Build901 2013/11/27)

>  <Rbt.Parameter_File>
/export/apps/rDock/src/rDock_2013.1_src/data/scripts/dock_solv.prm

>  <Rbt.Receptor>
prm/blind_docking_100.prm

>  <SCORE>
-10.0758

>  <SCORE.INTER>
-10.0758

>  <SCORE.INTER.CONST>
1

>  <SCORE.INTER.POLAR>
0

>  <SCORE.INTER.ROT>
0

>  <SCORE.INTER.SOLV>
24.6886

>  <SCORE.INTER.VDW>
-18.5467

>  <SCORE.INTER.norm>
-0.83965

>  <SCORE.INTRA>
0

>  <SCORE.INTRA.DIHEDRAL>
0

>  <SCORE.INTRA.DIHEDRAL.0>
0

>  <SCORE.INTRA.POLAR>
0

>  <SCORE.INTRA.POLAR.0>
0

>  <SCORE.INTRA.REPUL>
0

>  <SCORE.INTRA.REPUL.0>
0

>  <SCORE.INTRA.SOLV>
0

>  <SCORE.INTRA.SOLV.lig_0>
-48.1583

>  <SCORE.INTRA.VDW>
0

>  <SCORE.INTRA.VDW.0>
0

>  <SCORE.INTRA.norm>
0

>  <SCORE.RESTR>
0

>  <SCORE.RESTR.CAVITY>
0

>  <SCORE.RESTR.norm>
0

>  <SCORE.SYSTEM>
0

>  <SCORE.SYSTEM.CONST>
0

>  <SCORE.SYSTEM.DIHEDRAL>
0

>  <SCORE.SYSTEM.SOLV>
0

>  <SCORE.SYSTEM.norm>
0

>  <SCORE.heavy>
12

>  <SCORE.norm>
-0.83965

>  <RMSD>
3.697

$$$$
ligand
 OpenBabel11021811503D
libRbt.so/2013.1/901 2013/11/27
 12 13  0  0  0  0  0  0  0  0999 V2000
    6.4688   19.0210    5.0147 C   0  0  0  0  0  0  0  0  0  0  0  0
    6.8478   17.9351    2.9868 C   0  0  0  0  0  0  0  0  0  0  0  0
    6.6643   20.0809    5.7939 N   0  0  0  0  0  0  0  0  0  0  0  0
    7.4148   17.8471    1.7786 N   0  0  0  0  0  0  0  0  0  0  0  0
    7.0527   18.9822    3.7969 N   0  0  0  0  0  0  0  0  0  0  0  0
    5.6710   18.0163    5.4397 N   0  0  0  0  0  0  0  0  0  0  0  0
    5.0154   14.7244    3.0213 N   0  0  0  0  0  0  0  0  0  0  0  0
    4.4213   14.8023    4.2904 C   0  0  0  0  0  0  0  0  0  0  0  0
    4.6586   15.9272    5.1144 N   0  0  0  0  0  0  0  0  0  0  0  0
    5.4415   16.9298    4.6608 C   0  0  0  0  0  0  0  0  0  0  0  0
    6.0316   16.8726    3.3941 C   0  0  0  0  0  0  0  0  0  0  0  0
    5.8306   15.7760    2.5579 C   0  0  0  0  0  0  0  0  0  0  0  0
  1  3  1  0  0  0  0
  1  5  1  0  0  0  0
  1  6  2  0  0  0  0
  2  5  2  0  0  0  0
  2 11  1  0  0  0  0
  2  4  1  0  0  0  0
  6 10  1  0  0  0  0
  7  8  2  0  0  0  0
  7 12  1  0  0  0  0
  8  9  1  0  0  0  0
  9 10  2  0  0  0  0
 10 11  1  0  0  0  0
 11 12  2  0  0  0  0
M  END
>  <CHROM.1>
5.96904320,17.27001707,4.00050658,0.88242140,0.92287831,0.85003816

>  <Name>
ligand

>  <RI>
0

>  <Rbt.Current_Directory>
/home/itssahil/PROJECTS/Mol_Feturizer/New_Systems/rnas/4LX5

>  <Rbt.Executable>
rbdock ($Id: //depot/dev/client3/rdock/2013.1/src/exe/rbdock.cxx#4 $)

>  <Rbt.Library>
libRbt.so (2013.1, Build901 2013/11/27)

>  <Rbt.Parameter_File>
/export/apps/rDock/src/rDock_2013.1_src/data/scripts/dock_solv.prm

>  <Rbt.Receptor>
prm/blind_docking_100.prm

>  <SCORE>
-10.0825

>  <SCORE.INTER>
-10.0825

>  <SCORE.INTER.CONST>
1

>  <SCORE.INTER.POLAR>
0

>  <SCORE.INTER.ROT>
0

>  <SCORE.INTER.SOLV>
24.6903

>  <SCORE.INTER.VDW>
-18.5518

>  <SCORE.INTER.norm>
-0.840208

>  <SCORE.INTRA>
0

>  <SCORE.INTRA.DIHEDRAL>
0

>  <SCORE.INTRA.DIHEDRAL.0>
0

>  <SCORE.INTRA.POLAR>
0

>  <SCORE.INTRA.POLAR.0>
0

>  <SCORE.INTRA.REPUL>
0

>  <SCORE.INTRA.REPUL.0>
0

>  <SCORE.INTRA.SOLV>
0

>  <SCORE.INTRA.SOLV.lig_0>
-48.1583

>  <SCORE.INTRA.VDW>
0

>  <SCORE.INTRA.VDW.0>
0

>  <SCORE.INTRA.norm>
0

>  <SCORE.RESTR>
0

>  <SCORE.RESTR.CAVITY>
0

>  <SCORE.RESTR.norm>
0

>  <SCORE.SYSTEM>
0

>  <SCORE.SYSTEM.CONST>
0

>  <SCORE.SYSTEM.DIHEDRAL>
0

>  <SCORE.SYSTEM.SOLV>
0

>  <SCORE.SYSTEM.norm>
0

>  <SCORE.heavy>
12

>  <SCORE.norm>
-0.840208

>  <RMSD>
3.698

$$$$
ligand
 OpenBabel11021811503D
libRbt.so/2013.1/901 2013/11/27
 12 13  0  0  0  0  0  0  0  0999 V2000
    6.4779   19.0198    5.0248 C   0  0  0  0  0  0  0  0  0  0  0  0
    6.8547   17.9402    2.9932 C   0  0  0  0  0  0  0  0  0  0  0  0
    6.6759   20.0764    5.8079 N   0  0  0  0  0  0  0  0  0  0  0  0
    7.4218   17.8550    1.7848 N   0  0  0  0  0  0  0  0  0  0  0  0
    7.0620   18.9838    3.8071 N   0  0  0  0  0  0  0  0  0  0  0  0
    5.6773   18.0156    5.4460 N   0  0  0  0  0  0  0  0  0  0  0  0
    5.0139   14.7342    3.0156 N   0  0  0  0  0  0  0  0  0  0  0  0
    4.4196   14.8090    4.2848 C   0  0  0  0  0  0  0  0  0  0  0  0
    4.6595   15.9303    5.1129 N   0  0  0  0  0  0  0  0  0  0  0  0
    5.4452   16.9325    4.6631 C   0  0  0  0  0  0  0  0  0  0  0  0
    6.0356   16.8784    3.3964 C   0  0  0  0  0  0  0  0  0  0  0  0
    5.8319   15.7853    2.5562 C   0  0  0  0  0  0  0  0  0  0  0  0
  1  3  1  0  0  0  0
  1  5  1  0  0  0  0
  1  6  2  0  0  0  0
  2  5  2  0  0  0  0
  2 11  1  0  0  0  0
  2  4  1  0  0  0  0
  6 10  1  0  0  0  0
  7  8  2  0  0  0  0
  7 12  1  0  0  0  0
  8  9  1  0  0  0  0
  9 10  2  0  0  0  0
 10 11  1  0  0  0  0
 11 12  2  0  0  0  0
M  END
>  <CHROM.1>
5.97385393,17.27374594,4.00421789,0.87995783,0.92069977,0.85559432

>  <Name>
ligand

>  <RI>
0

>  <Rbt.Current_Directory>
/home/itssahil/PROJECTS/Mol_Feturizer/New_Systems/rnas/4LX5

>  <Rbt.Executable>
rbdock ($Id: //depot/dev/client3/rdock/2013.1/src/exe/rbdock.cxx#4 $)

>  <Rbt.Library>
libRbt.so (2013.1, Build901 2013/11/27)

>  <Rbt.Parameter_File>
/export/apps/rDock/src/rDock_2013.1_src/data/scripts/dock_solv.prm

>  <Rbt.Receptor>
prm/pocket_docking_7.prm

>  <SCORE>
-10.0805

>  <SCORE.INTER>
-10.0805

>  <SCORE.INTER.CONST>
1

>  <SCORE.INTER.POLAR>
0

>  <SCORE.INTER.ROT>
0

>  <SCORE.INTER.SOLV>
24.6622

>  <SCORE.INTER.VDW>
-18.5411

>  <SCORE.INTER.norm>
-0.840043

>  <SCORE.INTRA>
0

>  <SCORE.INTRA.DIHEDRAL>
0

>  <SCORE.INTRA.DIHEDRAL.0>
0

>  <SCORE.INTRA.POLAR>
0

>  <SCORE.INTRA.POLAR.0>
0

>  <SCORE.INTRA.REPUL>
0

>  <SCORE.INTRA.REPUL.0>
0

>  <SCORE.INTRA.SOLV>
0

>  <SCORE.INTRA.SOLV.lig_0>
-48.1583

>  <SCORE.INTRA.VDW>
0

>  <SCORE.INTRA.VDW.0>
0

>  <SCORE.INTRA.norm>
0

>  <SCORE.RESTR>
0

>  <SCORE.RESTR.CAVITY>
0

>  <SCORE.RESTR.norm>
0

>  <SCORE.SYSTEM>
0

>  <SCORE.SYSTEM.CONST>
0

>  <SCORE.SYSTEM.DIHEDRAL>
0

>  <SCORE.SYSTEM.SOLV>
0

>  <SCORE.SYSTEM.norm>
0

>  <SCORE.heavy>
12

>  <SCORE.norm>
-0.840043

>  <RMSD>
3.702

$$$$
ligand
 OpenBabel11021811503D
libRbt.so/2013.1/901 2013/11/27
 12 13  0  0  0  0  0  0  0  0999 V2000
    6.4605   19.0197    5.0155 C   0  0  0  0  0  0  0  0  0  0  0  0
    6.8481   17.9410    2.9854 C   0  0  0  0  0  0  0  0  0  0  0  0
    6.6523   20.0770    5.7992 N   0  0  0  0  0  0  0  0  0  0  0  0
    7.4199   17.8575    1.7791 N   0  0  0  0  0  0  0  0  0  0  0  0
    7.0492   18.9854    3.8000 N   0  0  0  0  0  0  0  0  0  0  0  0
    5.6616   18.0130    5.4339 N   0  0  0  0  0  0  0  0  0  0  0  0
    5.0173   14.7293    3.0015 N   0  0  0  0  0  0  0  0  0  0  0  0
    4.4181   14.8024    4.2685 C   0  0  0  0  0  0  0  0  0  0  0  0
    4.6516   15.9245    5.0973 N   0  0  0  0  0  0  0  0  0  0  0  0
    5.4357   16.9291    4.6503 C   0  0  0  0  0  0  0  0  0  0  0  0
    6.0309   16.8767    3.3857 C   0  0  0  0  0  0  0  0  0  0  0  0
    5.8337   15.7829    2.5449 C   0  0  0  0  0  0  0  0  0  0  0  0
  1  3  1  0  0  0  0
  1  5  1  0  0  0  0
  1  6  2  0  0  0  0
  2  5  2  0  0  0  0
  2 11  1  0  0  0  0
  2  4  1  0  0  0  0
  6 10  1  0  0  0  0
  7  8  2  0  0  0  0
  7 12  1  0  0  0  0
  8  9  1  0  0  0  0
  9 10  2  0  0  0  0
 10 11  1  0  0  0  0
 11 12  2  0  0  0  0
M  END
>  <CHROM.1>
5.96568964,17.27196047,3.99328358,0.88790977,0.92066289,0.84915320

>  <Name>
ligand

>  <RI>
0

>  <Rbt.Current_Directory>
/home/itssahil/PROJECTS/Mol_Feturizer/New_Systems/rnas/4LX5

>  <Rbt.Executable>
rbdock ($Id: //depot/dev/client3/rdock/2013.1/src/exe/rbdock.cxx#4 $)

>  <Rbt.Library>
libRbt.so (2013.1, Build901 2013/11/27)

>  <Rbt.Parameter_File>
/export/apps/rDock/src/rDock_2013.1_src/data/scripts/dock_solv.prm

>  <Rbt.Receptor>
prm/blind_docking_40.prm

>  <SCORE>
-10.0625

>  <SCORE.INTER>
-10.0625

>  <SCORE.INTER.CONST>
1

>  <SCORE.INTER.POLAR>
0

>  <SCORE.INTER.ROT>
0

>  <SCORE.INTER.SOLV>
24.7163

>  <SCORE.INTER.VDW>
-18.5471

>  <SCORE.INTER.norm>
-0.838544

>  <SCORE.INTRA>
0

>  <SCORE.INTRA.DIHEDRAL>
0

>  <SCORE.INTRA.DIHEDRAL.0>
0

>  <SCORE.INTRA.POLAR>
0

>  <SCORE.INTRA.POLAR.0>
0

>  <SCORE.INTRA.REPUL>
0

>  <SCORE.INTRA.REPUL.0>
0

>  <SCORE.INTRA.SOLV>
0

>  <SCORE.INTRA.SOLV.lig_0>
-48.1583

>  <SCORE.INTRA.VDW>
0

>  <SCORE.INTRA.VDW.0>
0

>  <SCORE.INTRA.norm>
0

>  <SCORE.RESTR>
0

>  <SCORE.RESTR.CAVITY>
0

>  <SCORE.RESTR.norm>
0

>  <SCORE.SYSTEM>
0

>  <SCORE.SYSTEM.CONST>
0

>  <SCORE.SYSTEM.DIHEDRAL>
0

>  <SCORE.SYSTEM.SOLV>
0

>  <SCORE.SYSTEM.norm>
0

>  <SCORE.heavy>
12

>  <SCORE.norm>
-0.838544

>  <RMSD>
3.703

$$$$
ligand
 OpenBabel11021811503D
libRbt.so/2013.1/901 2013/11/27
 12 13  0  0  0  0  0  0  0  0999 V2000
    6.4846   18.9799    5.0312 C   0  0  0  0  0  0  0  0  0  0  0  0
    6.8493   17.9188    2.9877 C   0  0  0  0  0  0  0  0  0  0  0  0
    6.6877   20.0291    5.8229 N   0  0  0  0  0  0  0  0  0  0  0  0
    7.4097   17.8443    1.7755 N   0  0  0  0  0  0  0  0  0  0  0  0
    7.0620   18.9547    3.8101 N   0  0  0  0  0  0  0  0  0  0  0  0
    5.6855   17.9726    5.4475 N   0  0  0  0  0  0  0  0  0  0  0  0
    5.0060   14.7142    2.9907 N   0  0  0  0  0  0  0  0  0  0  0  0
    4.4187   14.7778    4.2637 C   0  0  0  0  0  0  0  0  0  0  0  0
    4.6641   15.8912    5.1008 N   0  0  0  0  0  0  0  0  0  0  0  0
    5.4482   16.8969    4.6560 C   0  0  0  0  0  0  0  0  0  0  0  0
    6.0315   16.8540    3.3856 C   0  0  0  0  0  0  0  0  0  0  0  0
    5.8224   15.7688    2.5365 C   0  0  0  0  0  0  0  0  0  0  0  0
  1  3  1  0  0  0  0
  1  5  1  0  0  0  0
  1  6  2  0  0  0  0
  2  5  2  0  0  0  0
  2 11  1  0  0  0  0
  2  4  1  0  0  0  0
  6 10  1  0  0  0  0
  7  8  2  0  0  0  0
  7 12  1  0  0  0  0
  8  9  1  0  0  0  0
  9 10  2  0  0  0  0
 10 11  1  0  0  0  0
 11 12  2  0  0  0  0
M  END
>  <CHROM.1>
5.97347509,17.24377804,3.99733654,0.87219163,0.92364184,0.87099508

>  <Name>
ligand

>  <RI>
0

>  <Rbt.Current_Directory>
/home/itssahil/PROJECTS/Mol_Feturizer/New_Systems/rnas/4LX5

>  <Rbt.Executable>
rbdock ($Id: //depot/dev/client3/rdock/2013.1/src/exe/rbdock.cxx#4 $)

>  <Rbt.Library>
libRbt.so (2013.1, Build901 2013/11/27)

>  <Rbt.Parameter_File>
/export/apps/rDock/src/rDock_2013.1_src/data/scripts/dock_solv.prm

>  <Rbt.Receptor>
prm/pocket_docking_8.prm

>  <SCORE>
-10.0729

>  <SCORE.INTER>
-10.0729

>  <SCORE.INTER.CONST>
1

>  <SCORE.INTER.POLAR>
0

>  <SCORE.INTER.ROT>
0

>  <SCORE.INTER.SOLV>
24.4168

>  <SCORE.INTER.VDW>
-18.4542

>  <SCORE.INTER.norm>
-0.839407

>  <SCORE.INTRA>
0

>  <SCORE.INTRA.DIHEDRAL>
0

>  <SCORE.INTRA.DIHEDRAL.0>
0

>  <SCORE.INTRA.POLAR>
0

>  <SCORE.INTRA.POLAR.0>
0

>  <SCORE.INTRA.REPUL>
0

>  <SCORE.INTRA.REPUL.0>
0

>  <SCORE.INTRA.SOLV>
0

>  <SCORE.INTRA.SOLV.lig_0>
-48.1583

>  <SCORE.INTRA.VDW>
0

>  <SCORE.INTRA.VDW.0>
0

>  <SCORE.INTRA.norm>
0

>  <SCORE.RESTR>
0

>  <SCORE.RESTR.CAVITY>
0

>  <SCORE.RESTR.norm>
0

>  <SCORE.SYSTEM>
0

>  <SCORE.SYSTEM.CONST>
0

>  <SCORE.SYSTEM.DIHEDRAL>
0

>  <SCORE.SYSTEM.SOLV>
0

>  <SCORE.SYSTEM.norm>
0

>  <SCORE.heavy>
12

>  <SCORE.norm>
-0.839407

>  <RMSD>
3.708

$$$$
ligand
 OpenBabel11021811503D
libRbt.so/2013.1/901 2013/11/27
 12 13  0  0  0  0  0  0  0  0999 V2000
    6.4612   19.0103    5.0136 C   0  0  0  0  0  0  0  0  0  0  0  0
    6.8451   17.9505    2.9729 C   0  0  0  0  0  0  0  0  0  0  0  0
    6.6490   20.0631    5.8042 N   0  0  0  0  0  0  0  0  0  0  0  0
    7.4101   17.8811    1.7625 N   0  0  0  0  0  0  0  0  0  0  0  0
    7.0425   18.9903    3.7942 N   0  0  0  0  0  0  0  0  0  0  0  0
    5.6732   17.9938    5.4291 N   0  0  0  0  0  0  0  0  0  0  0  0
    5.0412   14.7235    2.9754 N   0  0  0  0  0  0  0  0  0  0  0  0
    4.4493   14.7819    4.2465 C   0  0  0  0  0  0  0  0  0  0  0  0
    4.6786   15.8996    5.0826 N   0  0  0  0  0  0  0  0  0  0  0  0
    5.4515   16.9141    4.6385 C   0  0  0  0  0  0  0  0  0  0  0  0
    6.0392   16.8764    3.3700 C   0  0  0  0  0  0  0  0  0  0  0  0
    5.8460   15.7874    2.5219 C   0  0  0  0  0  0  0  0  0  0  0  0
  1  3  1  0  0  0  0
  1  5  1  0  0  0  0
  1  6  2  0  0  0  0
  2  5  2  0  0  0  0
  2 11  1  0  0  0  0
  2  4  1  0  0  0  0
  6 10  1  0  0  0  0
  7  8  2  0  0  0  0
  7 12  1  0  0  0  0
  8  9  1  0  0  0  0
  9 10  2  0  0  0  0
 10 11  1  0  0  0  0
 11 12  2  0  0  0  0
M  END
>  <CHROM.1>
5.97454814,17.26639766,3.98092869,0.88933385,0.93100871,0.85570659

>  <Name>
ligand

>  <RI>
0

>  <Rbt.Current_Directory>
/home/itssahil/PROJECTS/Mol_Feturizer/New_Systems/rnas/4LX5

>  <Rbt.Executable>
rbdock ($Id: //depot/dev/client3/rdock/2013.1/src/exe/rbdock.cxx#4 $)

>  <Rbt.Library>
libRbt.so (2013.1, Build901 2013/11/27)

>  <Rbt.Parameter_File>
/export/apps/rDock/src/rDock_2013.1_src/data/scripts/dock_solv.prm

>  <Rbt.Receptor>
prm/blind_docking_100.prm

>  <SCORE>
-10.083

>  <SCORE.INTER>
-10.083

>  <SCORE.INTER.CONST>
1

>  <SCORE.INTER.POLAR>
0

>  <SCORE.INTER.ROT>
0

>  <SCORE.INTER.SOLV>
24.7373

>  <SCORE.INTER.VDW>
-18.5678

>  <SCORE.INTER.norm>
-0.840251

>  <SCORE.INTRA>
0

>  <SCORE.INTRA.DIHEDRAL>
0

>  <SCORE.INTRA.DIHEDRAL.0>
0

>  <SCORE.INTRA.POLAR>
0

>  <SCORE.INTRA.POLAR.0>
0

>  <SCORE.INTRA.REPUL>
0

>  <SCORE.INTRA.REPUL.0>
0

>  <SCORE.INTRA.SOLV>
0

>  <SCORE.INTRA.SOLV.lig_0>
-48.1583

>  <SCORE.INTRA.VDW>
0

>  <SCORE.INTRA.VDW.0>
0

>  <SCORE.INTRA.norm>
0

>  <SCORE.RESTR>
0

>  <SCORE.RESTR.CAVITY>
0

>  <SCORE.RESTR.norm>
0

>  <SCORE.SYSTEM>
0

>  <SCORE.SYSTEM.CONST>
0

>  <SCORE.SYSTEM.DIHEDRAL>
0

>  <SCORE.SYSTEM.SOLV>
0

>  <SCORE.SYSTEM.norm>
0

>  <SCORE.heavy>
12

>  <SCORE.norm>
-0.840251

>  <RMSD>
3.709

$$$$
ligand
 OpenBabel11021811503D
libRbt.so/2013.1/901 2013/11/27
 12 13  0  0  0  0  0  0  0  0999 V2000
    6.4650   19.0066    5.0272 C   0  0  0  0  0  0  0  0  0  0  0  0
    6.8522   17.9411    2.9901 C   0  0  0  0  0  0  0  0  0  0  0  0
    6.6591   20.0577    5.8186 N   0  0  0  0  0  0  0  0  0  0  0  0
    7.4256   17.8641    1.7842 N   0  0  0  0  0  0  0  0  0  0  0  0
    7.0555   18.9790    3.8124 N   0  0  0  0  0  0  0  0  0  0  0  0
    5.6620   17.9998    5.4372 N   0  0  0  0  0  0  0  0  0  0  0  0
    5.0105   14.7355    2.9805 N   0  0  0  0  0  0  0  0  0  0  0  0
    4.4095   14.8017    4.2470 C   0  0  0  0  0  0  0  0  0  0  0  0
    4.6454   15.9172    5.0842 N   0  0  0  0  0  0  0  0  0  0  0  0
    5.4337   16.9222    4.6455 C   0  0  0  0  0  0  0  0  0  0  0  0
    6.0307   16.8768    3.3816 C   0  0  0  0  0  0  0  0  0  0  0  0
    5.8312   15.7896    2.5327 C   0  0  0  0  0  0  0  0  0  0  0  0
  1  3  1  0  0  0  0
  1  5  1  0  0  0  0
  1  6  2  0  0  0  0
  2  5  2  0  0  0  0
  2 11  1  0  0  0  0
  2  4  1  0  0  0  0
  6 10  1  0  0  0  0
  7  8  2  0  0  0  0
  7 12  1  0  0  0  0
  8  9  1  0  0  0  0
  9 10  2  0  0  0  0
 10 11  1  0  0  0  0
 11 12  2  0  0  0  0
M  END
>  <CHROM.1>
5.96588343,17.26788581,3.99181506,0.88621603,0.91705408,0.85757866

>  <Name>
ligand

>  <RI>
0

>  <Rbt.Current_Directory>
/home/itssahil/PROJECTS/Mol_Feturizer/New_Systems/rnas/4LX5

>  <Rbt.Executable>
rbdock ($Id: //depot/dev/client3/rdock/2013.1/src/exe/rbdock.cxx#4 $)

>  <Rbt.Library>
libRbt.so (2013.1, Build901 2013/11/27)

>  <Rbt.Parameter_File>
/export/apps/rDock/src/rDock_2013.1_src/data/scripts/dock_solv.prm

>  <Rbt.Receptor>
prm/blind_docking_80.prm

>  <SCORE>
-10.0937

>  <SCORE.INTER>
-10.0937

>  <SCORE.INTER.CONST>
1

>  <SCORE.INTER.POLAR>
0

>  <SCORE.INTER.ROT>
0

>  <SCORE.INTER.SOLV>
24.627

>  <SCORE.INTER.VDW>
-18.5381

>  <SCORE.INTER.norm>
-0.841139

>  <SCORE.INTRA>
0

>  <SCORE.INTRA.DIHEDRAL>
0

>  <SCORE.INTRA.DIHEDRAL.0>
0

>  <SCORE.INTRA.POLAR>
0

>  <SCORE.INTRA.POLAR.0>
0

>  <SCORE.INTRA.REPUL>
0

>  <SCORE.INTRA.REPUL.0>
0

>  <SCORE.INTRA.SOLV>
0

>  <SCORE.INTRA.SOLV.lig_0>
-48.1583

>  <SCORE.INTRA.VDW>
0

>  <SCORE.INTRA.VDW.0>
0

>  <SCORE.INTRA.norm>
0

>  <SCORE.RESTR>
0

>  <SCORE.RESTR.CAVITY>
0

>  <SCORE.RESTR.norm>
0

>  <SCORE.SYSTEM>
0

>  <SCORE.SYSTEM.CONST>
0

>  <SCORE.SYSTEM.DIHEDRAL>
0

>  <SCORE.SYSTEM.SOLV>
0

>  <SCORE.SYSTEM.norm>
0

>  <SCORE.heavy>
12

>  <SCORE.norm>
-0.841139

>  <RMSD>
3.710

$$$$
ligand
 OpenBabel11021811503D
libRbt.so/2013.1/901 2013/11/27
 12 13  0  0  0  0  0  0  0  0999 V2000
    6.4621   18.9950    5.0296 C   0  0  0  0  0  0  0  0  0  0  0  0
    6.8479   17.9298    2.9920 C   0  0  0  0  0  0  0  0  0  0  0  0
    6.6568   20.0459    5.8211 N   0  0  0  0  0  0  0  0  0  0  0  0
    7.4205   17.8531    1.7857 N   0  0  0  0  0  0  0  0  0  0  0  0
    7.0519   18.9675    3.8144 N   0  0  0  0  0  0  0  0  0  0  0  0
    5.6592   17.9881    5.4399 N   0  0  0  0  0  0  0  0  0  0  0  0
    5.0059   14.7244    2.9830 N   0  0  0  0  0  0  0  0  0  0  0  0
    4.4058   14.7904    4.2499 C   0  0  0  0  0  0  0  0  0  0  0  0
    4.6423   15.9056    5.0871 N   0  0  0  0  0  0  0  0  0  0  0  0
    5.4304   16.9107    4.6482 C   0  0  0  0  0  0  0  0  0  0  0  0
    6.0266   16.8655    3.3838 C   0  0  0  0  0  0  0  0  0  0  0  0
    5.8264   15.7785    2.5349 C   0  0  0  0  0  0  0  0  0  0  0  0
  1  3  1  0  0  0  0
  1  5  1  0  0  0  0
  1  6  2  0  0  0  0
  2  5  2  0  0  0  0
  2 11  1  0  0  0  0
  2  4  1  0  0  0  0
  6 10  1  0  0  0  0
  7  8  2  0  0  0  0
  7 12  1  0  0  0  0
  8  9  1  0  0  0  0
  9 10  2  0  0  0  0
 10 11  1  0  0  0  0
 11 12  2  0  0  0  0
M  END
>  <CHROM.1>
5.96218245,17.25649111,3.99418009,0.88532259,0.91740926,0.85849917

>  <Name>
ligand

>  <RI>
0

>  <Rbt.Current_Directory>
/home/itssahil/PROJECTS/Mol_Feturizer/New_Systems/rnas/4LX5

>  <Rbt.Executable>
rbdock ($Id: //depot/dev/client3/rdock/2013.1/src/exe/rbdock.cxx#4 $)

>  <Rbt.Library>
libRbt.so (2013.1, Build901 2013/11/27)

>  <Rbt.Parameter_File>
/export/apps/rDock/src/rDock_2013.1_src/data/scripts/dock_solv.prm

>  <Rbt.Receptor>
prm/blind_docking_60.prm

>  <SCORE>
-10.0901

>  <SCORE.INTER>
-10.0901

>  <SCORE.INTER.CONST>
1

>  <SCORE.INTER.POLAR>
0

>  <SCORE.INTER.ROT>
0

>  <SCORE.INTER.SOLV>
24.5478

>  <SCORE.INTER.VDW>
-18.5093

>  <SCORE.INTER.norm>
-0.840843

>  <SCORE.INTRA>
0

>  <SCORE.INTRA.DIHEDRAL>
0

>  <SCORE.INTRA.DIHEDRAL.0>
0

>  <SCORE.INTRA.POLAR>
0

>  <SCORE.INTRA.POLAR.0>
0

>  <SCORE.INTRA.REPUL>
0

>  <SCORE.INTRA.REPUL.0>
0

>  <SCORE.INTRA.SOLV>
0

>  <SCORE.INTRA.SOLV.lig_0>
-48.1583

>  <SCORE.INTRA.VDW>
0

>  <SCORE.INTRA.VDW.0>
0

>  <SCORE.INTRA.norm>
0

>  <SCORE.RESTR>
0

>  <SCORE.RESTR.CAVITY>
0

>  <SCORE.RESTR.norm>
0

>  <SCORE.SYSTEM>
0

>  <SCORE.SYSTEM.CONST>
0

>  <SCORE.SYSTEM.DIHEDRAL>
0

>  <SCORE.SYSTEM.SOLV>
0

>  <SCORE.SYSTEM.norm>
0

>  <SCORE.heavy>
12

>  <SCORE.norm>
-0.840843

>  <RMSD>
3.711

$$$$
ligand
 OpenBabel11021811503D
libRbt.so/2013.1/901 2013/11/27
 12 13  0  0  0  0  0  0  0  0999 V2000
    6.4543   18.9969    5.0206 C   0  0  0  0  0  0  0  0  0  0  0  0
    6.8517   17.9373    2.9824 C   0  0  0  0  0  0  0  0  0  0  0  0
    6.6391   20.0485    5.8136 N   0  0  0  0  0  0  0  0  0  0  0  0
    7.4266   17.8668    1.7767 N   0  0  0  0  0  0  0  0  0  0  0  0
    7.0458   18.9758    3.8062 N   0  0  0  0  0  0  0  0  0  0  0  0
    5.6593   17.9829    5.4287 N   0  0  0  0  0  0  0  0  0  0  0  0
    5.0368   14.7166    2.9673 N   0  0  0  0  0  0  0  0  0  0  0  0
    4.4344   14.7761    4.2334 C   0  0  0  0  0  0  0  0  0  0  0  0
    4.6604   15.8923    5.0722 N   0  0  0  0  0  0  0  0  0  0  0  0
    5.4406   16.9045    4.6355 C   0  0  0  0  0  0  0  0  0  0  0  0
    6.0388   16.8657    3.3719 C   0  0  0  0  0  0  0  0  0  0  0  0
    5.8490   15.7780    2.5214 C   0  0  0  0  0  0  0  0  0  0  0  0
  1  3  1  0  0  0  0
  1  5  1  0  0  0  0
  1  6  2  0  0  0  0
  2  5  2  0  0  0  0
  2 11  1  0  0  0  0
  2  4  1  0  0  0  0
  6 10  1  0  0  0  0
  7  8  2  0  0  0  0
  7 12  1  0  0  0  0
  8  9  1  0  0  0  0
  9 10  2  0  0  0  0
 10 11  1  0  0  0  0
 11 12  2  0  0  0  0
M  END
>  <CHROM.1>
5.97035247,17.25544600,3.98257878,0.89609831,0.92287435,0.85104368

>  <Name>
ligand

>  <RI>
0

>  <Rbt.Current_Directory>
/home/itssahil/PROJECTS/Mol_Feturizer/New_Systems/rnas/4LX5

>  <Rbt.Executable>
rbdock ($Id: //depot/dev/client3/rdock/2013.1/src/exe/rbdock.cxx#4 $)

>  <Rbt.Library>
libRbt.so (2013.1, Build901 2013/11/27)

>  <Rbt.Parameter_File>
/export/apps/rDock/src/rDock_2013.1_src/data/scripts/dock_solv.prm

>  <Rbt.Receptor>
prm/blind_docking_60.prm

>  <SCORE>
-10.0787

>  <SCORE.INTER>
-10.0787

>  <SCORE.INTER.CONST>
1

>  <SCORE.INTER.POLAR>
0

>  <SCORE.INTER.ROT>
0

>  <SCORE.INTER.SOLV>
24.6683

>  <SCORE.INTER.VDW>
-18.5419

>  <SCORE.INTER.norm>
-0.839892

>  <SCORE.INTRA>
0

>  <SCORE.INTRA.DIHEDRAL>
0

>  <SCORE.INTRA.DIHEDRAL.0>
0

>  <SCORE.INTRA.POLAR>
0

>  <SCORE.INTRA.POLAR.0>
0

>  <SCORE.INTRA.REPUL>
0

>  <SCORE.INTRA.REPUL.0>
0

>  <SCORE.INTRA.SOLV>
0

>  <SCORE.INTRA.SOLV.lig_0>
-48.1583

>  <SCORE.INTRA.VDW>
0

>  <SCORE.INTRA.VDW.0>
0

>  <SCORE.INTRA.norm>
0

>  <SCORE.RESTR>
0

>  <SCORE.RESTR.CAVITY>
0

>  <SCORE.RESTR.norm>
0

>  <SCORE.SYSTEM>
0

>  <SCORE.SYSTEM.CONST>
0

>  <SCORE.SYSTEM.DIHEDRAL>
0

>  <SCORE.SYSTEM.SOLV>
0

>  <SCORE.SYSTEM.norm>
0

>  <SCORE.heavy>
12

>  <SCORE.norm>
-0.839892

>  <RMSD>
3.714

$$$$
ligand
 OpenBabel11021811503D
libRbt.so/2013.1/901 2013/11/27
 12 13  0  0  0  0  0  0  0  0999 V2000
    6.5055   18.8655    5.0929 C   0  0  0  0  0  0  0  0  0  0  0  0
    6.7002   17.8987    2.9805 C   0  0  0  0  0  0  0  0  0  0  0  0
    6.7804   19.8750    5.9140 N   0  0  0  0  0  0  0  0  0  0  0  0
    7.1646   17.8771    1.7263 N   0  0  0  0  0  0  0  0  0  0  0  0
    6.9868   18.8934    3.8308 N   0  0  0  0  0  0  0  0  0  0  0  0
    5.7301   17.8455    5.5230 N   0  0  0  0  0  0  0  0  0  0  0  0
    4.8283   14.7107    2.9785 N   0  0  0  0  0  0  0  0  0  0  0  0
    4.3416   14.7188    4.2948 C   0  0  0  0  0  0  0  0  0  0  0  0
    4.6628   15.7900    5.1608 N   0  0  0  0  0  0  0  0  0  0  0  0
    5.4210   16.8098    4.7034 C   0  0  0  0  0  0  0  0  0  0  0  0
    5.9042   16.8223    3.3910 C   0  0  0  0  0  0  0  0  0  0  0  0
    5.6185   15.7796    2.5115 C   0  0  0  0  0  0  0  0  0  0  0  0
  1  3  1  0  0  0  0
  1  5  1  0  0  0  0
  1  6  2  0  0  0  0
  2  5  2  0  0  0  0
  2 11  1  0  0  0  0
  2  4  1  0  0  0  0
  6 10  1  0  0  0  0
  7  8  2  0  0  0  0
  7 12  1  0  0  0  0
  8  9  1  0  0  0  0
  9 10  2  0  0  0  0
 10 11  1  0  0  0  0
 11 12  2  0  0  0  0
M  END
>  <CHROM.1>
5.89762998,17.18339061,4.02277228,0.75669690,0.96207574,1.01108785

>  <Name>
ligand

>  <RI>
0

>  <Rbt.Current_Directory>
/home/itssahil/PROJECTS/Mol_Feturizer/New_Systems/rnas/4LX5

>  <Rbt.Executable>
rbdock ($Id: //depot/dev/client3/rdock/2013.1/src/exe/rbdock.cxx#4 $)

>  <Rbt.Library>
libRbt.so (2013.1, Build901 2013/11/27)

>  <Rbt.Parameter_File>
/export/apps/rDock/src/rDock_2013.1_src/data/scripts/dock_solv.prm

>  <Rbt.Receptor>
prm/blind_docking_40.prm

>  <SCORE>
-9.86152

>  <SCORE.INTER>
-9.86152

>  <SCORE.INTER.CONST>
1

>  <SCORE.INTER.POLAR>
0

>  <SCORE.INTER.ROT>
0

>  <SCORE.INTER.SOLV>
23.0536

>  <SCORE.INTER.VDW>
-17.8589

>  <SCORE.INTER.norm>
-0.821793

>  <SCORE.INTRA>
0

>  <SCORE.INTRA.DIHEDRAL>
0

>  <SCORE.INTRA.DIHEDRAL.0>
0

>  <SCORE.INTRA.POLAR>
0

>  <SCORE.INTRA.POLAR.0>
0

>  <SCORE.INTRA.REPUL>
0

>  <SCORE.INTRA.REPUL.0>
0

>  <SCORE.INTRA.SOLV>
0

>  <SCORE.INTRA.SOLV.lig_0>
-48.1583

>  <SCORE.INTRA.VDW>
0

>  <SCORE.INTRA.VDW.0>
0

>  <SCORE.INTRA.norm>
0

>  <SCORE.RESTR>
0

>  <SCORE.RESTR.CAVITY>
0

>  <SCORE.RESTR.norm>
0

>  <SCORE.SYSTEM>
0

>  <SCORE.SYSTEM.CONST>
0

>  <SCORE.SYSTEM.DIHEDRAL>
0

>  <SCORE.SYSTEM.SOLV>
0

>  <SCORE.SYSTEM.norm>
0

>  <SCORE.heavy>
12

>  <SCORE.norm>
-0.821793

>  <RMSD>
3.715

$$$$
ligand
 OpenBabel11021811503D
libRbt.so/2013.1/901 2013/11/27
 12 13  0  0  0  0  0  0  0  0999 V2000
    6.4643   18.9977    5.0282 C   0  0  0  0  0  0  0  0  0  0  0  0
    6.8539   17.9434    2.9858 C   0  0  0  0  0  0  0  0  0  0  0  0
    6.6528   20.0470    5.8234 N   0  0  0  0  0  0  0  0  0  0  0  0
    7.4246   17.8755    1.7780 N   0  0  0  0  0  0  0  0  0  0  0  0
    7.0517   18.9794    3.8117 N   0  0  0  0  0  0  0  0  0  0  0  0
    5.6697   17.9834    5.4362 N   0  0  0  0  0  0  0  0  0  0  0  0
    5.0358   14.7244    2.9680 N   0  0  0  0  0  0  0  0  0  0  0  0
    4.4377   14.7810    4.2363 C   0  0  0  0  0  0  0  0  0  0  0  0
    4.6677   15.8947    5.0774 N   0  0  0  0  0  0  0  0  0  0  0  0
    5.4473   16.9074    4.6408 C   0  0  0  0  0  0  0  0  0  0  0  0
    6.0413   16.8714    3.3751 C   0  0  0  0  0  0  0  0  0  0  0  0
    5.8475   15.7863    2.5223 C   0  0  0  0  0  0  0  0  0  0  0  0
  1  3  1  0  0  0  0
  1  5  1  0  0  0  0
  1  6  2  0  0  0  0
  2  5  2  0  0  0  0
  2 11  1  0  0  0  0
  2  4  1  0  0  0  0
  6 10  1  0  0  0  0
  7  8  2  0  0  0  0
  7 12  1  0  0  0  0
  8  9  1  0  0  0  0
  9 10  2  0  0  0  0
 10 11  1  0  0  0  0
 11 12  2  0  0  0  0
M  END
>  <CHROM.1>
5.97520195,17.25959107,3.98706884,0.89086660,0.92436576,0.85794010

>  <Name>
ligand

>  <RI>
0

>  <Rbt.Current_Directory>
/home/itssahil/PROJECTS/Mol_Feturizer/New_Systems/rnas/4LX5

>  <Rbt.Executable>
rbdock ($Id: //depot/dev/client3/rdock/2013.1/src/exe/rbdock.cxx#4 $)

>  <Rbt.Library>
libRbt.so (2013.1, Build901 2013/11/27)

>  <Rbt.Parameter_File>
/export/apps/rDock/src/rDock_2013.1_src/data/scripts/dock_solv.prm

>  <Rbt.Receptor>
prm/blind_docking_60.prm

>  <SCORE>
-10.0831

>  <SCORE.INTER>
-10.0831

>  <SCORE.INTER.CONST>
1

>  <SCORE.INTER.POLAR>
0

>  <SCORE.INTER.ROT>
0

>  <SCORE.INTER.SOLV>
24.6493

>  <SCORE.INTER.VDW>
-18.5385

>  <SCORE.INTER.norm>
-0.840261

>  <SCORE.INTRA>
0

>  <SCORE.INTRA.DIHEDRAL>
0

>  <SCORE.INTRA.DIHEDRAL.0>
0

>  <SCORE.INTRA.POLAR>
0

>  <SCORE.INTRA.POLAR.0>
0

>  <SCORE.INTRA.REPUL>
0

>  <SCORE.INTRA.REPUL.0>
0

>  <SCORE.INTRA.SOLV>
0

>  <SCORE.INTRA.SOLV.lig_0>
-48.1583

>  <SCORE.INTRA.VDW>
0

>  <SCORE.INTRA.VDW.0>
0

>  <SCORE.INTRA.norm>
0

>  <SCORE.RESTR>
0

>  <SCORE.RESTR.CAVITY>
0

>  <SCORE.RESTR.norm>
0

>  <SCORE.SYSTEM>
0

>  <SCORE.SYSTEM.CONST>
0

>  <SCORE.SYSTEM.DIHEDRAL>
0

>  <SCORE.SYSTEM.SOLV>
0

>  <SCORE.SYSTEM.norm>
0

>  <SCORE.heavy>
12

>  <SCORE.norm>
-0.840261

>  <RMSD>
3.715

$$$$
ligand
 OpenBabel11021811503D
libRbt.so/2013.1/901 2013/11/27
 12 13  0  0  0  0  0  0  0  0999 V2000
    6.4673   18.9973    5.0314 C   0  0  0  0  0  0  0  0  0  0  0  0
    6.8629   17.9450    2.9891 C   0  0  0  0  0  0  0  0  0  0  0  0
    6.6553   20.0447    5.8292 N   0  0  0  0  0  0  0  0  0  0  0  0
    7.4388   17.8775    1.7838 N   0  0  0  0  0  0  0  0  0  0  0  0
    7.0601   18.9792    3.8176 N   0  0  0  0  0  0  0  0  0  0  0  0
    5.6681   17.9845    5.4343 N   0  0  0  0  0  0  0  0  0  0  0  0
    5.0358   14.7313    2.9582 N   0  0  0  0  0  0  0  0  0  0  0  0
    4.4323   14.7876    4.2240 C   0  0  0  0  0  0  0  0  0  0  0  0
    4.6617   15.8994    5.0678 N   0  0  0  0  0  0  0  0  0  0  0  0
    5.4462   16.9104    4.6362 C   0  0  0  0  0  0  0  0  0  0  0  0
    6.0456   16.8748    3.3731 C   0  0  0  0  0  0  0  0  0  0  0  0
    5.8525   15.7916    2.5178 C   0  0  0  0  0  0  0  0  0  0  0  0
  1  3  1  0  0  0  0
  1  5  1  0  0  0  0
  1  6  2  0  0  0  0
  2  5  2  0  0  0  0
  2 11  1  0  0  0  0
  2  4  1  0  0  0  0
  6 10  1  0  0  0  0
  7  8  2  0  0  0  0
  7 12  1  0  0  0  0
  8  9  1  0  0  0  0
  9 10  2  0  0  0  0
 10 11  1  0  0  0  0
 11 12  2  0  0  0  0
M  END
>  <CHROM.1>
5.97791181,17.26218991,3.98541466,0.89328647,0.91932628,0.85760866

>  <Name>
ligand

>  <RI>
0

>  <Rbt.Current_Directory>
/home/itssahil/PROJECTS/Mol_Feturizer/New_Systems/rnas/4LX5

>  <Rbt.Executable>
rbdock ($Id: //depot/dev/client3/rdock/2013.1/src/exe/rbdock.cxx#4 $)

>  <Rbt.Library>
libRbt.so (2013.1, Build901 2013/11/27)

>  <Rbt.Parameter_File>
/export/apps/rDock/src/rDock_2013.1_src/data/scripts/dock_solv.prm

>  <Rbt.Receptor>
prm/blind_docking_60.prm

>  <SCORE>
-10.077

>  <SCORE.INTER>
-10.077

>  <SCORE.INTER.CONST>
1

>  <SCORE.INTER.POLAR>
0

>  <SCORE.INTER.ROT>
0

>  <SCORE.INTER.SOLV>
24.6572

>  <SCORE.INTER.VDW>
-18.5371

>  <SCORE.INTER.norm>
-0.839749

>  <SCORE.INTRA>
0

>  <SCORE.INTRA.DIHEDRAL>
0

>  <SCORE.INTRA.DIHEDRAL.0>
0

>  <SCORE.INTRA.POLAR>
0

>  <SCORE.INTRA.POLAR.0>
0

>  <SCORE.INTRA.REPUL>
0

>  <SCORE.INTRA.REPUL.0>
0

>  <SCORE.INTRA.SOLV>
0

>  <SCORE.INTRA.SOLV.lig_0>
-48.1583

>  <SCORE.INTRA.VDW>
0

>  <SCORE.INTRA.VDW.0>
0

>  <SCORE.INTRA.norm>
0

>  <SCORE.RESTR>
0

>  <SCORE.RESTR.CAVITY>
0

>  <SCORE.RESTR.norm>
0

>  <SCORE.SYSTEM>
0

>  <SCORE.SYSTEM.CONST>
0

>  <SCORE.SYSTEM.DIHEDRAL>
0

>  <SCORE.SYSTEM.SOLV>
0

>  <SCORE.SYSTEM.norm>
0

>  <SCORE.heavy>
12

>  <SCORE.norm>
-0.839749

>  <RMSD>
3.718

$$$$
ligand
 OpenBabel11021811503D
libRbt.so/2013.1/901 2013/11/27
 12 13  0  0  0  0  0  0  0  0999 V2000
    5.1488   17.0647    5.2898 C   0  0  0  0  0  0  0  0  0  0  0  0
    3.9245   16.2071    3.5008 C   0  0  0  0  0  0  0  0  0  0  0  0
    5.3042   17.2002    6.6037 N   0  0  0  0  0  0  0  0  0  0  0  0
    2.8812   15.5446    2.9892 N   0  0  0  0  0  0  0  0  0  0  0  0
    4.0854   16.3765    4.8199 N   0  0  0  0  0  0  0  0  0  0  0  0
    6.0672   17.5915    4.4498 N   0  0  0  0  0  0  0  0  0  0  0  0
    5.6289   17.1531    0.3595 N   0  0  0  0  0  0  0  0  0  0  0  0
    6.7237   17.8569    0.8845 C   0  0  0  0  0  0  0  0  0  0  0  0
    6.8605   18.0100    2.2840 N   0  0  0  0  0  0  0  0  0  0  0  0
    5.9429   17.4565    3.1058 C   0  0  0  0  0  0  0  0  0  0  0  0
    4.8524   16.7424    2.5989 C   0  0  0  0  0  0  0  0  0  0  0  0
    4.6772   16.5797    1.2259 C   0  0  0  0  0  0  0  0  0  0  0  0
  1  3  1  0  0  0  0
  1  5  1  0  0  0  0
  1  6  2  0  0  0  0
  2  5  2  0  0  0  0
  2 11  1  0  0  0  0
  2  4  1  0  0  0  0
  6 10  1  0  0  0  0
  7  8  2  0  0  0  0
  7 12  1  0  0  0  0
  8  9  1  0  0  0  0
  9 10  2  0  0  0  0
 10 11  1  0  0  0  0
 11 12  2  0  0  0  0
M  END
>  <CHROM.1>
5.17191356,16.98173588,3.20731070,-1.86696689,-0.55929715,-1.61274508

>  <Name>
ligand

>  <RI>
0

>  <Rbt.Current_Directory>
/home/itssahil/PROJECTS/Mol_Feturizer/New_Systems/rnas/4LX5

>  <Rbt.Executable>
rbdock ($Id: //depot/dev/client3/rdock/2013.1/src/exe/rbdock.cxx#4 $)

>  <Rbt.Library>
libRbt.so (2013.1, Build901 2013/11/27)

>  <Rbt.Parameter_File>
/export/apps/rDock/src/rDock_2013.1_src/data/scripts/dock_solv.prm

>  <Rbt.Receptor>
prm/blind_docking_20.prm

>  <SCORE>
-6.62084

>  <SCORE.INTER>
-6.81743

>  <SCORE.INTER.CONST>
1

>  <SCORE.INTER.POLAR>
0

>  <SCORE.INTER.ROT>
0

>  <SCORE.INTER.SOLV>
21.8204

>  <SCORE.INTER.VDW>
-15.4184

>  <SCORE.INTER.norm>
-0.568119

>  <SCORE.INTRA>
0

>  <SCORE.INTRA.DIHEDRAL>
0

>  <SCORE.INTRA.DIHEDRAL.0>
0

>  <SCORE.INTRA.POLAR>
0

>  <SCORE.INTRA.POLAR.0>
0

>  <SCORE.INTRA.REPUL>
0

>  <SCORE.INTRA.REPUL.0>
0

>  <SCORE.INTRA.SOLV>
0

>  <SCORE.INTRA.SOLV.lig_0>
-48.1583

>  <SCORE.INTRA.VDW>
0

>  <SCORE.INTRA.VDW.0>
0

>  <SCORE.INTRA.norm>
0

>  <SCORE.RESTR>
0.196592

>  <SCORE.RESTR.CAVITY>
0.196592

>  <SCORE.RESTR.norm>
0.0163826

>  <SCORE.SYSTEM>
0

>  <SCORE.SYSTEM.CONST>
0

>  <SCORE.SYSTEM.DIHEDRAL>
0

>  <SCORE.SYSTEM.SOLV>
0

>  <SCORE.SYSTEM.norm>
0

>  <SCORE.heavy>
12

>  <SCORE.norm>
-0.551737

>  <RMSD>
3.812

$$$$
ligand
 OpenBabel11021811503D
libRbt.so/2013.1/901 2013/11/27
 12 13  0  0  0  0  0  0  0  0999 V2000
    4.4878   15.2963    4.2514 C   0  0  0  0  0  0  0  0  0  0  0  0
    5.6480   17.2321    4.8361 C   0  0  0  0  0  0  0  0  0  0  0  0
    3.6919   14.2926    4.6092 N   0  0  0  0  0  0  0  0  0  0  0  0
    6.0592   18.1434    5.7247 N   0  0  0  0  0  0  0  0  0  0  0  0
    4.8673   16.1996    5.1816 N   0  0  0  0  0  0  0  0  0  0  0  0
    4.8806   15.4121    2.9634 N   0  0  0  0  0  0  0  0  0  0  0  0
    7.3258   18.5453    1.8149 N   0  0  0  0  0  0  0  0  0  0  0  0
    6.9069   17.5907    0.8753 C   0  0  0  0  0  0  0  0  0  0  0  0
    6.0787   16.5174    1.2787 N   0  0  0  0  0  0  0  0  0  0  0  0
    5.6800   16.4334    2.5664 C   0  0  0  0  0  0  0  0  0  0  0  0
    6.0794   17.3829    3.5125 C   0  0  0  0  0  0  0  0  0  0  0  0
    6.9041   18.4482    3.1558 C   0  0  0  0  0  0  0  0  0  0  0  0
  1  3  1  0  0  0  0
  1  5  1  0  0  0  0
  1  6  2  0  0  0  0
  2  5  2  0  0  0  0
  2 11  1  0  0  0  0
  2  4  1  0  0  0  0
  6 10  1  0  0  0  0
  7  8  2  0  0  0  0
  7 12  1  0  0  0  0
  8  9  1  0  0  0  0
  9 10  2  0  0  0  0
 10 11  1  0  0  0  0
 11 12  2  0  0  0  0
M  END
>  <CHROM.1>
5.69955126,16.77024038,3.41268741,2.72458857,0.94004997,1.21512642

>  <Name>
ligand

>  <RI>
0

>  <Rbt.Current_Directory>
/home/itssahil/PROJECTS/Mol_Feturizer/New_Systems/rnas/4LX5

>  <Rbt.Executable>
rbdock ($Id: //depot/dev/client3/rdock/2013.1/src/exe/rbdock.cxx#4 $)

>  <Rbt.Library>
libRbt.so (2013.1, Build901 2013/11/27)

>  <Rbt.Parameter_File>
/export/apps/rDock/src/rDock_2013.1_src/data/scripts/dock_solv.prm

>  <Rbt.Receptor>
prm/pocket_docking_6.prm

>  <SCORE>
-12.0793

>  <SCORE.INTER>
-12.0793

>  <SCORE.INTER.CONST>
1

>  <SCORE.INTER.POLAR>
0

>  <SCORE.INTER.ROT>
0

>  <SCORE.INTER.SOLV>
17.4332

>  <SCORE.INTER.VDW>
-17.4639

>  <SCORE.INTER.norm>
-1.00661

>  <SCORE.INTRA>
0

>  <SCORE.INTRA.DIHEDRAL>
0

>  <SCORE.INTRA.DIHEDRAL.0>
0

>  <SCORE.INTRA.POLAR>
0

>  <SCORE.INTRA.POLAR.0>
0

>  <SCORE.INTRA.REPUL>
0

>  <SCORE.INTRA.REPUL.0>
0

>  <SCORE.INTRA.SOLV>
0

>  <SCORE.INTRA.SOLV.lig_0>
-48.1583

>  <SCORE.INTRA.VDW>
0

>  <SCORE.INTRA.VDW.0>
0

>  <SCORE.INTRA.norm>
0

>  <SCORE.RESTR>
0

>  <SCORE.RESTR.CAVITY>
0

>  <SCORE.RESTR.norm>
0

>  <SCORE.SYSTEM>
0

>  <SCORE.SYSTEM.CONST>
0

>  <SCORE.SYSTEM.DIHEDRAL>
0

>  <SCORE.SYSTEM.SOLV>
0

>  <SCORE.SYSTEM.norm>
0

>  <SCORE.heavy>
12

>  <SCORE.norm>
-1.00661

>  <RMSD>
4.073

$$$$
ligand
 OpenBabel11021811503D
libRbt.so/2013.1/901 2013/11/27
 12 13  0  0  0  0  0  0  0  0999 V2000
    4.4734   15.3105    4.2601 C   0  0  0  0  0  0  0  0  0  0  0  0
    5.6608   17.2308    4.8410 C   0  0  0  0  0  0  0  0  0  0  0  0
    3.6656   14.3173    4.6205 N   0  0  0  0  0  0  0  0  0  0  0  0
    6.0868   18.1366    5.7282 N   0  0  0  0  0  0  0  0  0  0  0  0
    4.8678   16.2087    5.1891 N   0  0  0  0  0  0  0  0  0  0  0  0
    4.8635   15.4211    2.9708 N   0  0  0  0  0  0  0  0  0  0  0  0
    7.3458   18.5221    1.8143 N   0  0  0  0  0  0  0  0  0  0  0  0
    6.9113   17.5731    0.8761 C   0  0  0  0  0  0  0  0  0  0  0  0
    6.0704   16.5108    1.2822 N   0  0  0  0  0  0  0  0  0  0  0  0
    5.6749   16.4320    2.5712 C   0  0  0  0  0  0  0  0  0  0  0  0
    6.0898   17.3760    3.5160 C   0  0  0  0  0  0  0  0  0  0  0  0
    6.9273   18.4304    3.1566 C   0  0  0  0  0  0  0  0  0  0  0  0
  1  3  1  0  0  0  0
  1  5  1  0  0  0  0
  1  6  2  0  0  0  0
  2  5  2  0  0  0  0
  2 11  1  0  0  0  0
  2  4  1  0  0  0  0
  6 10  1  0  0  0  0
  7  8  2  0  0  0  0
  7 12  1  0  0  0  0
  8  9  1  0  0  0  0
  9 10  2  0  0  0  0
 10 11  1  0  0  0  0
 11 12  2  0  0  0  0
M  END
>  <CHROM.1>
5.70164148,16.76841825,3.41742371,2.71181950,0.92886822,1.22543661

>  <Name>
ligand

>  <RI>
0

>  <Rbt.Current_Directory>
/home/itssahil/PROJECTS/Mol_Feturizer/New_Systems/rnas/4LX5

>  <Rbt.Executable>
rbdock ($Id: //depot/dev/client3/rdock/2013.1/src/exe/rbdock.cxx#4 $)

>  <Rbt.Library>
libRbt.so (2013.1, Build901 2013/11/27)

>  <Rbt.Parameter_File>
/export/apps/rDock/src/rDock_2013.1_src/data/scripts/dock_solv.prm

>  <Rbt.Receptor>
prm/blind_docking_60.prm

>  <SCORE>
-12.0663

>  <SCORE.INTER>
-12.0663

>  <SCORE.INTER.CONST>
1

>  <SCORE.INTER.POLAR>
0

>  <SCORE.INTER.ROT>
0

>  <SCORE.INTER.SOLV>
17.2844

>  <SCORE.INTER.VDW>
-17.4057

>  <SCORE.INTER.norm>
-1.00552

>  <SCORE.INTRA>
0

>  <SCORE.INTRA.DIHEDRAL>
0

>  <SCORE.INTRA.DIHEDRAL.0>
0

>  <SCORE.INTRA.POLAR>
0

>  <SCORE.INTRA.POLAR.0>
0

>  <SCORE.INTRA.REPUL>
0

>  <SCORE.INTRA.REPUL.0>
0

>  <SCORE.INTRA.SOLV>
0

>  <SCORE.INTRA.SOLV.lig_0>
-48.1583

>  <SCORE.INTRA.VDW>
0

>  <SCORE.INTRA.VDW.0>
0

>  <SCORE.INTRA.norm>
0

>  <SCORE.RESTR>
0

>  <SCORE.RESTR.CAVITY>
0

>  <SCORE.RESTR.norm>
0

>  <SCORE.SYSTEM>
0

>  <SCORE.SYSTEM.CONST>
0

>  <SCORE.SYSTEM.DIHEDRAL>
0

>  <SCORE.SYSTEM.SOLV>
0

>  <SCORE.SYSTEM.norm>
0

>  <SCORE.heavy>
12

>  <SCORE.norm>
-1.00552

>  <RMSD>
4.078

$$$$
ligand
 OpenBabel11021811503D
libRbt.so/2013.1/901 2013/11/27
 12 13  0  0  0  0  0  0  0  0999 V2000
    4.4895   15.3098    4.2396 C   0  0  0  0  0  0  0  0  0  0  0  0
    5.6666   17.2406    4.8067 C   0  0  0  0  0  0  0  0  0  0  0  0
    3.6987   14.3068    4.6104 N   0  0  0  0  0  0  0  0  0  0  0  0
    6.0985   18.1477    5.6896 N   0  0  0  0  0  0  0  0  0  0  0  0
    4.8906   16.2089    5.1648 N   0  0  0  0  0  0  0  0  0  0  0  0
    4.8556   15.4292    2.9440 N   0  0  0  0  0  0  0  0  0  0  0  0
    7.2842   18.5604    1.7556 N   0  0  0  0  0  0  0  0  0  0  0  0
    6.8433   17.6102    0.8216 C   0  0  0  0  0  0  0  0  0  0  0  0
    6.0210   16.5376    1.2386 N   0  0  0  0  0  0  0  0  0  0  0  0
    5.6492   16.4500    2.5340 C   0  0  0  0  0  0  0  0  0  0  0  0
    6.0706   17.3951    3.4748 C   0  0  0  0  0  0  0  0  0  0  0  0
    6.8904   18.4595    3.1047 C   0  0  0  0  0  0  0  0  0  0  0  0
  1  3  1  0  0  0  0
  1  5  1  0  0  0  0
  1  6  2  0  0  0  0
  2  5  2  0  0  0  0
  2 11  1  0  0  0  0
  2  4  1  0  0  0  0
  6 10  1  0  0  0  0
  7  8  2  0  0  0  0
  7 12  1  0  0  0  0
  8  9  1  0  0  0  0
  9 10  2  0  0  0  0
 10 11  1  0  0  0  0
 11 12  2  0  0  0  0
M  END
>  <CHROM.1>
5.68721785,16.78370167,3.38084874,2.68964892,0.94464796,1.24692841

>  <Name>
ligand

>  <RI>
0

>  <Rbt.Current_Directory>
/home/itssahil/PROJECTS/Mol_Feturizer/New_Systems/rnas/4LX5

>  <Rbt.Executable>
rbdock ($Id: //depot/dev/client3/rdock/2013.1/src/exe/rbdock.cxx#4 $)

>  <Rbt.Library>
libRbt.so (2013.1, Build901 2013/11/27)

>  <Rbt.Parameter_File>
/export/apps/rDock/src/rDock_2013.1_src/data/scripts/dock_solv.prm

>  <Rbt.Receptor>
prm/blind_docking_60.prm

>  <SCORE>
-12.1147

>  <SCORE.INTER>
-12.1147

>  <SCORE.INTER.CONST>
1

>  <SCORE.INTER.POLAR>
0

>  <SCORE.INTER.ROT>
0

>  <SCORE.INTER.SOLV>
17.1763

>  <SCORE.INTER.VDW>
-17.4019

>  <SCORE.INTER.norm>
-1.00956

>  <SCORE.INTRA>
0

>  <SCORE.INTRA.DIHEDRAL>
0

>  <SCORE.INTRA.DIHEDRAL.0>
0

>  <SCORE.INTRA.POLAR>
0

>  <SCORE.INTRA.POLAR.0>
0

>  <SCORE.INTRA.REPUL>
0

>  <SCORE.INTRA.REPUL.0>
0

>  <SCORE.INTRA.SOLV>
0

>  <SCORE.INTRA.SOLV.lig_0>
-48.1583

>  <SCORE.INTRA.VDW>
0

>  <SCORE.INTRA.VDW.0>
0

>  <SCORE.INTRA.norm>
0

>  <SCORE.RESTR>
0

>  <SCORE.RESTR.CAVITY>
0

>  <SCORE.RESTR.norm>
0

>  <SCORE.SYSTEM>
0

>  <SCORE.SYSTEM.CONST>
0

>  <SCORE.SYSTEM.DIHEDRAL>
0

>  <SCORE.SYSTEM.SOLV>
0

>  <SCORE.SYSTEM.norm>
0

>  <SCORE.heavy>
12

>  <SCORE.norm>
-1.00956

>  <RMSD>
4.080

$$$$
ligand
 OpenBabel11021811503D
libRbt.so/2013.1/901 2013/11/27
 12 13  0  0  0  0  0  0  0  0999 V2000
    4.5308   15.3077    4.2678 C   0  0  0  0  0  0  0  0  0  0  0  0
    5.7102   17.2414    4.8198 C   0  0  0  0  0  0  0  0  0  0  0  0
    3.7496   14.3012    4.6493 N   0  0  0  0  0  0  0  0  0  0  0  0
    6.1534   18.1482    5.6975 N   0  0  0  0  0  0  0  0  0  0  0  0
    4.9438   16.2062    5.1883 N   0  0  0  0  0  0  0  0  0  0  0  0
    4.8753   15.4311    2.9667 N   0  0  0  0  0  0  0  0  0  0  0  0
    7.2732   18.5733    1.7456 N   0  0  0  0  0  0  0  0  0  0  0  0
    6.8205   17.6235    0.8169 C   0  0  0  0  0  0  0  0  0  0  0  0
    6.0088   16.5471    1.2449 N   0  0  0  0  0  0  0  0  0  0  0  0
    5.6584   16.4555    2.5460 C   0  0  0  0  0  0  0  0  0  0  0  0
    6.0919   17.4001    3.4819 C   0  0  0  0  0  0  0  0  0  0  0  0
    6.9019   18.4682    3.1007 C   0  0  0  0  0  0  0  0  0  0  0  0
  1  3  1  0  0  0  0
  1  5  1  0  0  0  0
  1  6  2  0  0  0  0
  2  5  2  0  0  0  0
  2 11  1  0  0  0  0
  2  4  1  0  0  0  0
  6 10  1  0  0  0  0
  7  8  2  0  0  0  0
  7 12  1  0  0  0  0
  8  9  1  0  0  0  0
  9 10  2  0  0  0  0
 10 11  1  0  0  0  0
 11 12  2  0  0  0  0
M  END
>  <CHROM.1>
5.70915840,16.78759520,3.39283845,2.66483306,0.95300035,1.26922588

>  <Name>
ligand

>  <RI>
0

>  <Rbt.Current_Directory>
/home/itssahil/PROJECTS/Mol_Feturizer/New_Systems/rnas/4LX5

>  <Rbt.Executable>
rbdock ($Id: //depot/dev/client3/rdock/2013.1/src/exe/rbdock.cxx#4 $)

>  <Rbt.Library>
libRbt.so (2013.1, Build901 2013/11/27)

>  <Rbt.Parameter_File>
/export/apps/rDock/src/rDock_2013.1_src/data/scripts/dock_solv.prm

>  <Rbt.Receptor>
prm/blind_docking_60.prm

>  <SCORE>
-12.1293

>  <SCORE.INTER>
-12.1293

>  <SCORE.INTER.CONST>
1

>  <SCORE.INTER.POLAR>
0

>  <SCORE.INTER.ROT>
0

>  <SCORE.INTER.SOLV>
17.3543

>  <SCORE.INTER.VDW>
-17.471

>  <SCORE.INTER.norm>
-1.01078

>  <SCORE.INTRA>
0

>  <SCORE.INTRA.DIHEDRAL>
0

>  <SCORE.INTRA.DIHEDRAL.0>
0

>  <SCORE.INTRA.POLAR>
0

>  <SCORE.INTRA.POLAR.0>
0

>  <SCORE.INTRA.REPUL>
0

>  <SCORE.INTRA.REPUL.0>
0

>  <SCORE.INTRA.SOLV>
0

>  <SCORE.INTRA.SOLV.lig_0>
-48.1583

>  <SCORE.INTRA.VDW>
0

>  <SCORE.INTRA.VDW.0>
0

>  <SCORE.INTRA.norm>
0

>  <SCORE.RESTR>
0

>  <SCORE.RESTR.CAVITY>
0

>  <SCORE.RESTR.norm>
0

>  <SCORE.SYSTEM>
0

>  <SCORE.SYSTEM.CONST>
0

>  <SCORE.SYSTEM.DIHEDRAL>
0

>  <SCORE.SYSTEM.SOLV>
0

>  <SCORE.SYSTEM.norm>
0

>  <SCORE.heavy>
12

>  <SCORE.norm>
-1.01078

>  <RMSD>
4.083

$$$$
ligand
 OpenBabel11021811503D
libRbt.so/2013.1/901 2013/11/27
 12 13  0  0  0  0  0  0  0  0999 V2000
    4.5196   15.3077    4.2632 C   0  0  0  0  0  0  0  0  0  0  0  0
    5.6762   17.2559    4.8124 C   0  0  0  0  0  0  0  0  0  0  0  0
    3.7435   14.2971    4.6445 N   0  0  0  0  0  0  0  0  0  0  0  0
    6.1024   18.1731    5.6877 N   0  0  0  0  0  0  0  0  0  0  0  0
    4.9153   16.2167    5.1810 N   0  0  0  0  0  0  0  0  0  0  0  0
    4.8762   15.4243    2.9648 N   0  0  0  0  0  0  0  0  0  0  0  0
    7.2586   18.5785    1.7442 N   0  0  0  0  0  0  0  0  0  0  0  0
    6.8237   17.6179    0.8182 C   0  0  0  0  0  0  0  0  0  0  0  0
    6.0173   16.5375    1.2461 N   0  0  0  0  0  0  0  0  0  0  0  0
    5.6545   16.4525    2.5442 C   0  0  0  0  0  0  0  0  0  0  0  0
    6.0701   17.4079    3.4773 C   0  0  0  0  0  0  0  0  0  0  0  0
    6.8744   18.4804    3.0962 C   0  0  0  0  0  0  0  0  0  0  0  0
  1  3  1  0  0  0  0
  1  5  1  0  0  0  0
  1  6  2  0  0  0  0
  2  5  2  0  0  0  0
  2 11  1  0  0  0  0
  2  4  1  0  0  0  0
  6 10  1  0  0  0  0
  7  8  2  0  0  0  0
  7 12  1  0  0  0  0
  8  9  1  0  0  0  0
  9 10  2  0  0  0  0
 10 11  1  0  0  0  0
 11 12  2  0  0  0  0
M  END
>  <CHROM.1>
5.69367932,16.79138962,3.38902245,2.68631501,0.95830841,1.24413983

>  <Name>
ligand

>  <RI>
0

>  <Rbt.Current_Directory>
/home/itssahil/PROJECTS/Mol_Feturizer/New_Systems/rnas/4LX5

>  <Rbt.Executable>
rbdock ($Id: //depot/dev/client3/rdock/2013.1/src/exe/rbdock.cxx#4 $)

>  <Rbt.Library>
libRbt.so (2013.1, Build901 2013/11/27)

>  <Rbt.Parameter_File>
/export/apps/rDock/src/rDock_2013.1_src/data/scripts/dock_solv.prm

>  <Rbt.Receptor>
prm/pocket_docking_4.prm

>  <SCORE>
-12.127

>  <SCORE.INTER>
-12.127

>  <SCORE.INTER.CONST>
1

>  <SCORE.INTER.POLAR>
0

>  <SCORE.INTER.ROT>
0

>  <SCORE.INTER.SOLV>
17.4684

>  <SCORE.INTER.VDW>
-17.5075

>  <SCORE.INTER.norm>
-1.01058

>  <SCORE.INTRA>
0

>  <SCORE.INTRA.DIHEDRAL>
0

>  <SCORE.INTRA.DIHEDRAL.0>
0

>  <SCORE.INTRA.POLAR>
0

>  <SCORE.INTRA.POLAR.0>
0

>  <SCORE.INTRA.REPUL>
0

>  <SCORE.INTRA.REPUL.0>
0

>  <SCORE.INTRA.SOLV>
0

>  <SCORE.INTRA.SOLV.lig_0>
-48.1583

>  <SCORE.INTRA.VDW>
0

>  <SCORE.INTRA.VDW.0>
0

>  <SCORE.INTRA.norm>
0

>  <SCORE.RESTR>
0

>  <SCORE.RESTR.CAVITY>
0

>  <SCORE.RESTR.norm>
0

>  <SCORE.SYSTEM>
0

>  <SCORE.SYSTEM.CONST>
0

>  <SCORE.SYSTEM.DIHEDRAL>
0

>  <SCORE.SYSTEM.SOLV>
0

>  <SCORE.SYSTEM.norm>
0

>  <SCORE.heavy>
12

>  <SCORE.norm>
-1.01058

>  <RMSD>
4.083

$$$$
ligand
 OpenBabel11021811503D
libRbt.so/2013.1/901 2013/11/27
 12 13  0  0  0  0  0  0  0  0999 V2000
    4.5237   15.3217    4.2655 C   0  0  0  0  0  0  0  0  0  0  0  0
    5.6848   17.2695    4.8066 C   0  0  0  0  0  0  0  0  0  0  0  0
    3.7472   14.3132    4.6514 N   0  0  0  0  0  0  0  0  0  0  0  0
    6.1148   18.1882    5.6784 N   0  0  0  0  0  0  0  0  0  0  0  0
    4.9234   16.2324    5.1798 N   0  0  0  0  0  0  0  0  0  0  0  0
    4.8769   15.4346    2.9658 N   0  0  0  0  0  0  0  0  0  0  0  0
    7.2606   18.5821    1.7307 N   0  0  0  0  0  0  0  0  0  0  0  0
    6.8217   17.6198    0.8083 C   0  0  0  0  0  0  0  0  0  0  0  0
    6.0148   16.5417    1.2411 N   0  0  0  0  0  0  0  0  0  0  0  0
    5.6556   16.4605    2.5404 C   0  0  0  0  0  0  0  0  0  0  0  0
    6.0752   17.4176    3.4700 C   0  0  0  0  0  0  0  0  0  0  0  0
    6.8801   18.4879    3.0840 C   0  0  0  0  0  0  0  0  0  0  0  0
  1  3  1  0  0  0  0
  1  5  1  0  0  0  0
  1  6  2  0  0  0  0
  2  5  2  0  0  0  0
  2 11  1  0  0  0  0
  2  4  1  0  0  0  0
  6 10  1  0  0  0  0
  7  8  2  0  0  0  0
  7 12  1  0  0  0  0
  8  9  1  0  0  0  0
  9 10  2  0  0  0  0
 10 11  1  0  0  0  0
 11 12  2  0  0  0  0
M  END
>  <CHROM.1>
5.69761754,16.80143138,3.38429298,2.68087412,0.95776265,1.24609358

>  <Name>
ligand

>  <RI>
0

>  <Rbt.Current_Directory>
/home/itssahil/PROJECTS/Mol_Feturizer/New_Systems/rnas/4LX5

>  <Rbt.Executable>
rbdock ($Id: //depot/dev/client3/rdock/2013.1/src/exe/rbdock.cxx#4 $)

>  <Rbt.Library>
libRbt.so (2013.1, Build901 2013/11/27)

>  <Rbt.Parameter_File>
/export/apps/rDock/src/rDock_2013.1_src/data/scripts/dock_solv.prm

>  <Rbt.Receptor>
prm/blind_docking_100.prm

>  <SCORE>
-12.1585

>  <SCORE.INTER>
-12.1585

>  <SCORE.INTER.CONST>
1

>  <SCORE.INTER.POLAR>
0

>  <SCORE.INTER.ROT>
0

>  <SCORE.INTER.SOLV>
17.426

>  <SCORE.INTER.VDW>
-17.5144

>  <SCORE.INTER.norm>
-1.01321

>  <SCORE.INTRA>
0

>  <SCORE.INTRA.DIHEDRAL>
0

>  <SCORE.INTRA.DIHEDRAL.0>
0

>  <SCORE.INTRA.POLAR>
0

>  <SCORE.INTRA.POLAR.0>
0

>  <SCORE.INTRA.REPUL>
0

>  <SCORE.INTRA.REPUL.0>
0

>  <SCORE.INTRA.SOLV>
0

>  <SCORE.INTRA.SOLV.lig_0>
-48.1583

>  <SCORE.INTRA.VDW>
0

>  <SCORE.INTRA.VDW.0>
0

>  <SCORE.INTRA.norm>
0

>  <SCORE.RESTR>
0

>  <SCORE.RESTR.CAVITY>
0

>  <SCORE.RESTR.norm>
0

>  <SCORE.SYSTEM>
0

>  <SCORE.SYSTEM.CONST>
0

>  <SCORE.SYSTEM.DIHEDRAL>
0

>  <SCORE.SYSTEM.SOLV>
0

>  <SCORE.SYSTEM.norm>
0

>  <SCORE.heavy>
12

>  <SCORE.norm>
-1.01321

>  <RMSD>
4.085

$$$$
ligand
 OpenBabel11021811503D
libRbt.so/2013.1/901 2013/11/27
 12 13  0  0  0  0  0  0  0  0999 V2000
    4.4568   15.3321    4.2713 C   0  0  0  0  0  0  0  0  0  0  0  0
    5.7011   17.2184    4.8441 C   0  0  0  0  0  0  0  0  0  0  0  0
    3.6411   14.3491    4.6418 N   0  0  0  0  0  0  0  0  0  0  0  0
    6.1740   18.1005    5.7315 N   0  0  0  0  0  0  0  0  0  0  0  0
    4.8992   16.2065    5.2013 N   0  0  0  0  0  0  0  0  0  0  0  0
    4.8069   15.4568    2.9719 N   0  0  0  0  0  0  0  0  0  0  0  0
    7.3129   18.5271    1.7852 N   0  0  0  0  0  0  0  0  0  0  0  0
    6.8290   17.6029    0.8464 C   0  0  0  0  0  0  0  0  0  0  0  0
    5.9803   16.5507    1.2626 N   0  0  0  0  0  0  0  0  0  0  0  0
    5.6253   16.4579    2.5623 C   0  0  0  0  0  0  0  0  0  0  0  0
    6.0897   17.3775    3.5082 C   0  0  0  0  0  0  0  0  0  0  0  0
    6.9364   18.4211    3.1387 C   0  0  0  0  0  0  0  0  0  0  0  0
  1  3  1  0  0  0  0
  1  5  1  0  0  0  0
  1  6  2  0  0  0  0
  2  5  2  0  0  0  0
  2 11  1  0  0  0  0
  2  4  1  0  0  0  0
  6 10  1  0  0  0  0
  7  8  2  0  0  0  0
  7 12  1  0  0  0  0
  8  9  1  0  0  0  0
  9 10  2  0  0  0  0
 10 11  1  0  0  0  0
 11 12  2  0  0  0  0
M  END
>  <CHROM.1>
5.68633681,16.77945893,3.41260475,2.65004515,0.91980392,1.29132648

>  <Name>
ligand

>  <RI>
0

>  <Rbt.Current_Directory>
/home/itssahil/PROJECTS/Mol_Feturizer/New_Systems/rnas/4LX5

>  <Rbt.Executable>
rbdock ($Id: //depot/dev/client3/rdock/2013.1/src/exe/rbdock.cxx#4 $)

>  <Rbt.Library>
libRbt.so (2013.1, Build901 2013/11/27)

>  <Rbt.Parameter_File>
/export/apps/rDock/src/rDock_2013.1_src/data/scripts/dock_solv.prm

>  <Rbt.Receptor>
prm/pocket_docking_3.prm

>  <SCORE>
-12.0391

>  <SCORE.INTER>
-12.0391

>  <SCORE.INTER.CONST>
1

>  <SCORE.INTER.POLAR>
0

>  <SCORE.INTER.ROT>
0

>  <SCORE.INTER.SOLV>
16.9398

>  <SCORE.INTER.VDW>
-17.2727

>  <SCORE.INTER.norm>
-1.00326

>  <SCORE.INTRA>
0

>  <SCORE.INTRA.DIHEDRAL>
0

>  <SCORE.INTRA.DIHEDRAL.0>
0

>  <SCORE.INTRA.POLAR>
0

>  <SCORE.INTRA.POLAR.0>
0

>  <SCORE.INTRA.REPUL>
0

>  <SCORE.INTRA.REPUL.0>
0

>  <SCORE.INTRA.SOLV>
0

>  <SCORE.INTRA.SOLV.lig_0>
-48.1583

>  <SCORE.INTRA.VDW>
0

>  <SCORE.INTRA.VDW.0>
0

>  <SCORE.INTRA.norm>
0

>  <SCORE.RESTR>
0

>  <SCORE.RESTR.CAVITY>
0

>  <SCORE.RESTR.norm>
0

>  <SCORE.SYSTEM>
0

>  <SCORE.SYSTEM.CONST>
0

>  <SCORE.SYSTEM.DIHEDRAL>
0

>  <SCORE.SYSTEM.SOLV>
0

>  <SCORE.SYSTEM.norm>
0

>  <SCORE.heavy>
12

>  <SCORE.norm>
-1.00326

>  <RMSD>
4.086

$$$$
ligand
 OpenBabel11021811503D
libRbt.so/2013.1/901 2013/11/27
 12 13  0  0  0  0  0  0  0  0999 V2000
    4.5158   15.3359    4.2666 C   0  0  0  0  0  0  0  0  0  0  0  0
    5.6953   17.2727    4.8073 C   0  0  0  0  0  0  0  0  0  0  0  0
    3.7276   14.3364    4.6521 N   0  0  0  0  0  0  0  0  0  0  0  0
    6.1320   18.1888    5.6786 N   0  0  0  0  0  0  0  0  0  0  0  0
    4.9219   16.2444    5.1803 N   0  0  0  0  0  0  0  0  0  0  0  0
    4.8742   15.4423    2.9678 N   0  0  0  0  0  0  0  0  0  0  0  0
    7.2945   18.5623    1.7338 N   0  0  0  0  0  0  0  0  0  0  0  0
    6.8486   17.6026    0.8120 C   0  0  0  0  0  0  0  0  0  0  0  0
    6.0292   16.5339    1.2445 N   0  0  0  0  0  0  0  0  0  0  0  0
    5.6649   16.4592    2.5428 C   0  0  0  0  0  0  0  0  0  0  0  0
    6.0915   17.4139    3.4717 C   0  0  0  0  0  0  0  0  0  0  0  0
    6.9087   18.4749    3.0860 C   0  0  0  0  0  0  0  0  0  0  0  0
  1  3  1  0  0  0  0
  1  5  1  0  0  0  0
  1  6  2  0  0  0  0
  2  5  2  0  0  0  0
  2 11  1  0  0  0  0
  2  4  1  0  0  0  0
  6 10  1  0  0  0  0
  7  8  2  0  0  0  0
  7 12  1  0  0  0  0
  8  9  1  0  0  0  0
  9 10  2  0  0  0  0
 10 11  1  0  0  0  0
 11 12  2  0  0  0  0
M  END
>  <CHROM.1>
5.70779895,16.80147106,3.38609812,2.68041353,0.94689473,1.24433527

>  <Name>
ligand

>  <RI>
0

>  <Rbt.Current_Directory>
/home/itssahil/PROJECTS/Mol_Feturizer/New_Systems/rnas/4LX5

>  <Rbt.Executable>
rbdock ($Id: //depot/dev/client3/rdock/2013.1/src/exe/rbdock.cxx#4 $)

>  <Rbt.Library>
libRbt.so (2013.1, Build901 2013/11/27)

>  <Rbt.Parameter_File>
/export/apps/rDock/src/rDock_2013.1_src/data/scripts/dock_solv.prm

>  <Rbt.Receptor>
prm/blind_docking_100.prm

>  <SCORE>
-12.1294

>  <SCORE.INTER>
-12.1294

>  <SCORE.INTER.CONST>
1

>  <SCORE.INTER.POLAR>
0

>  <SCORE.INTER.ROT>
0

>  <SCORE.INTER.SOLV>
17.2797

>  <SCORE.INTER.VDW>
-17.4462

>  <SCORE.INTER.norm>
-1.01078

>  <SCORE.INTRA>
0

>  <SCORE.INTRA.DIHEDRAL>
0

>  <SCORE.INTRA.DIHEDRAL.0>
0

>  <SCORE.INTRA.POLAR>
0

>  <SCORE.INTRA.POLAR.0>
0

>  <SCORE.INTRA.REPUL>
0

>  <SCORE.INTRA.REPUL.0>
0

>  <SCORE.INTRA.SOLV>
0

>  <SCORE.INTRA.SOLV.lig_0>
-48.1583

>  <SCORE.INTRA.VDW>
0

>  <SCORE.INTRA.VDW.0>
0

>  <SCORE.INTRA.norm>
0

>  <SCORE.RESTR>
0

>  <SCORE.RESTR.CAVITY>
0

>  <SCORE.RESTR.norm>
0

>  <SCORE.SYSTEM>
0

>  <SCORE.SYSTEM.CONST>
0

>  <SCORE.SYSTEM.DIHEDRAL>
0

>  <SCORE.SYSTEM.SOLV>
0

>  <SCORE.SYSTEM.norm>
0

>  <SCORE.heavy>
12

>  <SCORE.norm>
-1.01078

>  <RMSD>
4.087

$$$$
ligand
 OpenBabel11021811503D
libRbt.so/2013.1/901 2013/11/27
 12 13  0  0  0  0  0  0  0  0999 V2000
    4.4573   15.3356    4.2642 C   0  0  0  0  0  0  0  0  0  0  0  0
    5.6666   17.2487    4.8228 C   0  0  0  0  0  0  0  0  0  0  0  0
    3.6547   14.3441    4.6407 N   0  0  0  0  0  0  0  0  0  0  0  0
    6.1184   18.1492    5.7027 N   0  0  0  0  0  0  0  0  0  0  0  0
    4.8784   16.2284    5.1865 N   0  0  0  0  0  0  0  0  0  0  0  0
    4.8153   15.4500    2.9659 N   0  0  0  0  0  0  0  0  0  0  0  0
    7.2805   18.5458    1.7600 N   0  0  0  0  0  0  0  0  0  0  0  0
    6.8188   17.6025    0.8292 C   0  0  0  0  0  0  0  0  0  0  0  0
    5.9840   16.5418    1.2520 N   0  0  0  0  0  0  0  0  0  0  0  0
    5.6206   16.4592    2.5501 C   0  0  0  0  0  0  0  0  0  0  0  0
    6.0629   17.3978    3.4880 C   0  0  0  0  0  0  0  0  0  0  0  0
    6.8954   18.4503    3.1120 C   0  0  0  0  0  0  0  0  0  0  0  0
  1  3  1  0  0  0  0
  1  5  1  0  0  0  0
  1  6  2  0  0  0  0
  2  5  2  0  0  0  0
  2 11  1  0  0  0  0
  2  4  1  0  0  0  0
  6 10  1  0  0  0  0
  7  8  2  0  0  0  0
  7 12  1  0  0  0  0
  8  9  1  0  0  0  0
  9 10  2  0  0  0  0
 10 11  1  0  0  0  0
 11 12  2  0  0  0  0
M  END
>  <CHROM.1>
5.66990318,16.79209505,3.39680267,2.66990074,0.93309006,1.26313526

>  <Name>
ligand

>  <RI>
0

>  <Rbt.Current_Directory>
/home/itssahil/PROJECTS/Mol_Feturizer/New_Systems/rnas/4LX5

>  <Rbt.Executable>
rbdock ($Id: //depot/dev/client3/rdock/2013.1/src/exe/rbdock.cxx#4 $)

>  <Rbt.Library>
libRbt.so (2013.1, Build901 2013/11/27)

>  <Rbt.Parameter_File>
/export/apps/rDock/src/rDock_2013.1_src/data/scripts/dock_solv.prm

>  <Rbt.Receptor>
prm/pocket_docking_7.prm

>  <SCORE>
-12.0692

>  <SCORE.INTER>
-12.0692

>  <SCORE.INTER.CONST>
1

>  <SCORE.INTER.POLAR>
0

>  <SCORE.INTER.ROT>
0

>  <SCORE.INTER.SOLV>
17.0707

>  <SCORE.INTER.VDW>
-17.3364

>  <SCORE.INTER.norm>
-1.00577

>  <SCORE.INTRA>
0

>  <SCORE.INTRA.DIHEDRAL>
0

>  <SCORE.INTRA.DIHEDRAL.0>
0

>  <SCORE.INTRA.POLAR>
0

>  <SCORE.INTRA.POLAR.0>
0

>  <SCORE.INTRA.REPUL>
0

>  <SCORE.INTRA.REPUL.0>
0

>  <SCORE.INTRA.SOLV>
0

>  <SCORE.INTRA.SOLV.lig_0>
-48.1583

>  <SCORE.INTRA.VDW>
0

>  <SCORE.INTRA.VDW.0>
0

>  <SCORE.INTRA.norm>
0

>  <SCORE.RESTR>
0

>  <SCORE.RESTR.CAVITY>
0

>  <SCORE.RESTR.norm>
0

>  <SCORE.SYSTEM>
0

>  <SCORE.SYSTEM.CONST>
0

>  <SCORE.SYSTEM.DIHEDRAL>
0

>  <SCORE.SYSTEM.SOLV>
0

>  <SCORE.SYSTEM.norm>
0

>  <SCORE.heavy>
12

>  <SCORE.norm>
-1.00577

>  <RMSD>
4.088

$$$$
ligand
 OpenBabel11021811503D
libRbt.so/2013.1/901 2013/11/27
 12 13  0  0  0  0  0  0  0  0999 V2000
    4.3324   15.4553    4.1070 C   0  0  0  0  0  0  0  0  0  0  0  0
    5.6861   17.2616    4.6900 C   0  0  0  0  0  0  0  0  0  0  0  0
    3.4875   14.4977    4.4783 N   0  0  0  0  0  0  0  0  0  0  0  0
    6.2357   18.0889    5.5859 N   0  0  0  0  0  0  0  0  0  0  0  0
    4.8530   16.2748    5.0465 N   0  0  0  0  0  0  0  0  0  0  0  0
    4.6346   15.6105    2.7989 N   0  0  0  0  0  0  0  0  0  0  0  0
    7.2308   18.6046    1.6114 N   0  0  0  0  0  0  0  0  0  0  0  0
    6.6661   17.7376    0.6633 C   0  0  0  0  0  0  0  0  0  0  0  0
    5.7869   16.7107    1.0793 N   0  0  0  0  0  0  0  0  0  0  0  0
    5.4815   16.5876    2.3890 C   0  0  0  0  0  0  0  0  0  0  0  0
    6.0267   17.4507    3.3450 C   0  0  0  0  0  0  0  0  0  0  0  0
    6.9054   18.4673    2.9754 C   0  0  0  0  0  0  0  0  0  0  0  0
  1  3  1  0  0  0  0
  1  5  1  0  0  0  0
  1  6  2  0  0  0  0
  2  5  2  0  0  0  0
  2 11  1  0  0  0  0
  2  4  1  0  0  0  0
  6 10  1  0  0  0  0
  7  8  2  0  0  0  0
  7 12  1  0  0  0  0
  8  9  1  0  0  0  0
  9 10  2  0  0  0  0
 10 11  1  0  0  0  0
 11 12  2  0  0  0  0
M  END
>  <CHROM.1>
5.59222295,16.87532794,3.24637661,2.56749969,0.88439419,1.39105557

>  <Name>
ligand

>  <RI>
0

>  <Rbt.Current_Directory>
/home/itssahil/PROJECTS/Mol_Feturizer/New_Systems/rnas/4LX5

>  <Rbt.Executable>
rbdock ($Id: //depot/dev/client3/rdock/2013.1/src/exe/rbdock.cxx#4 $)

>  <Rbt.Library>
libRbt.so (2013.1, Build901 2013/11/27)

>  <Rbt.Parameter_File>
/export/apps/rDock/src/rDock_2013.1_src/data/scripts/dock_solv.prm

>  <Rbt.Receptor>
prm/blind_docking_100.prm

>  <SCORE>
-12.105

>  <SCORE.INTER>
-12.105

>  <SCORE.INTER.CONST>
1

>  <SCORE.INTER.POLAR>
0

>  <SCORE.INTER.ROT>
0

>  <SCORE.INTER.SOLV>
15.061

>  <SCORE.INTER.VDW>
-16.6903

>  <SCORE.INTER.norm>
-1.00875

>  <SCORE.INTRA>
0

>  <SCORE.INTRA.DIHEDRAL>
0

>  <SCORE.INTRA.DIHEDRAL.0>
0

>  <SCORE.INTRA.POLAR>
0

>  <SCORE.INTRA.POLAR.0>
0

>  <SCORE.INTRA.REPUL>
0

>  <SCORE.INTRA.REPUL.0>
0

>  <SCORE.INTRA.SOLV>
0

>  <SCORE.INTRA.SOLV.lig_0>
-48.1583

>  <SCORE.INTRA.VDW>
0

>  <SCORE.INTRA.VDW.0>
0

>  <SCORE.INTRA.norm>
0

>  <SCORE.RESTR>
0

>  <SCORE.RESTR.CAVITY>
0

>  <SCORE.RESTR.norm>
0

>  <SCORE.SYSTEM>
0

>  <SCORE.SYSTEM.CONST>
0

>  <SCORE.SYSTEM.DIHEDRAL>
0

>  <SCORE.SYSTEM.SOLV>
0

>  <SCORE.SYSTEM.norm>
0

>  <SCORE.heavy>
12

>  <SCORE.norm>
-1.00875

>  <RMSD>
4.089

$$$$
ligand
 OpenBabel11021811503D
libRbt.so/2013.1/901 2013/11/27
 12 13  0  0  0  0  0  0  0  0999 V2000
    4.3480   15.4415    4.1110 C   0  0  0  0  0  0  0  0  0  0  0  0
    5.6824   17.2629    4.6913 C   0  0  0  0  0  0  0  0  0  0  0  0
    3.5086   14.4792    4.4828 N   0  0  0  0  0  0  0  0  0  0  0  0
    6.2188   18.1007    5.5853 N   0  0  0  0  0  0  0  0  0  0  0  0
    4.8552   16.2715    5.0485 N   0  0  0  0  0  0  0  0  0  0  0  0
    4.6578   15.5907    2.8039 N   0  0  0  0  0  0  0  0  0  0  0  0
    7.2367   18.5989    1.6145 N   0  0  0  0  0  0  0  0  0  0  0  0
    6.6859   17.7209    0.6682 C   0  0  0  0  0  0  0  0  0  0  0  0
    5.8126   16.6893    1.0850 N   0  0  0  0  0  0  0  0  0  0  0  0
    5.4992   16.5722    2.3934 C   0  0  0  0  0  0  0  0  0  0  0  0
    6.0306   17.4461    3.3474 C   0  0  0  0  0  0  0  0  0  0  0  0
    6.9032   18.4677    2.9771 C   0  0  0  0  0  0  0  0  0  0  0  0
  1  3  1  0  0  0  0
  1  5  1  0  0  0  0
  1  6  2  0  0  0  0
  2  5  2  0  0  0  0
  2 11  1  0  0  0  0
  2  4  1  0  0  0  0
  6 10  1  0  0  0  0
  7  8  2  0  0  0  0
  7 12  1  0  0  0  0
  8  9  1  0  0  0  0
  9 10  2  0  0  0  0
 10 11  1  0  0  0  0
 11 12  2  0  0  0  0
M  END
>  <CHROM.1>
5.60163405,16.86647095,3.24957922,2.58065226,0.89142318,1.37427317

>  <Name>
ligand

>  <RI>
0

>  <Rbt.Current_Directory>
/home/itssahil/PROJECTS/Mol_Feturizer/New_Systems/rnas/4LX5

>  <Rbt.Executable>
rbdock ($Id: //depot/dev/client3/rdock/2013.1/src/exe/rbdock.cxx#4 $)

>  <Rbt.Library>
libRbt.so (2013.1, Build901 2013/11/27)

>  <Rbt.Parameter_File>
/export/apps/rDock/src/rDock_2013.1_src/data/scripts/dock_solv.prm

>  <Rbt.Receptor>
prm/blind_docking_60.prm

>  <SCORE>
-12.1054

>  <SCORE.INTER>
-12.1054

>  <SCORE.INTER.CONST>
1

>  <SCORE.INTER.POLAR>
0

>  <SCORE.INTER.ROT>
0

>  <SCORE.INTER.SOLV>
15.1825

>  <SCORE.INTER.VDW>
-16.7311

>  <SCORE.INTER.norm>
-1.00879

>  <SCORE.INTRA>
0

>  <SCORE.INTRA.DIHEDRAL>
0

>  <SCORE.INTRA.DIHEDRAL.0>
0

>  <SCORE.INTRA.POLAR>
0

>  <SCORE.INTRA.POLAR.0>
0

>  <SCORE.INTRA.REPUL>
0

>  <SCORE.INTRA.REPUL.0>
0

>  <SCORE.INTRA.SOLV>
0

>  <SCORE.INTRA.SOLV.lig_0>
-48.1583

>  <SCORE.INTRA.VDW>
0

>  <SCORE.INTRA.VDW.0>
0

>  <SCORE.INTRA.norm>
0

>  <SCORE.RESTR>
0

>  <SCORE.RESTR.CAVITY>
0

>  <SCORE.RESTR.norm>
0

>  <SCORE.SYSTEM>
0

>  <SCORE.SYSTEM.CONST>
0

>  <SCORE.SYSTEM.DIHEDRAL>
0

>  <SCORE.SYSTEM.SOLV>
0

>  <SCORE.SYSTEM.norm>
0

>  <SCORE.heavy>
12

>  <SCORE.norm>
-1.00879

>  <RMSD>
4.089

$$$$
ligand
 OpenBabel11021811503D
libRbt.so/2013.1/901 2013/11/27
 12 13  0  0  0  0  0  0  0  0999 V2000
    4.4038   15.4155    4.1774 C   0  0  0  0  0  0  0  0  0  0  0  0
    5.7253   17.2524    4.7381 C   0  0  0  0  0  0  0  0  0  0  0  0
    3.5792   14.4451    4.5611 N   0  0  0  0  0  0  0  0  0  0  0  0
    6.2633   18.0978    5.6241 N   0  0  0  0  0  0  0  0  0  0  0  0
    4.9131   16.2530    5.1072 N   0  0  0  0  0  0  0  0  0  0  0  0
    4.6965   15.5652    2.8665 N   0  0  0  0  0  0  0  0  0  0  0  0
    7.2289   18.5982    1.6404 N   0  0  0  0  0  0  0  0  0  0  0  0
    6.6764   17.7123    0.7026 C   0  0  0  0  0  0  0  0  0  0  0  0
    5.8191   16.6724    1.1317 N   0  0  0  0  0  0  0  0  0  0  0  0
    5.5225   16.5548    2.4440 C   0  0  0  0  0  0  0  0  0  0  0  0
    6.0557   17.4364    3.3898 C   0  0  0  0  0  0  0  0  0  0  0  0
    6.9129   18.4664    3.0072 C   0  0  0  0  0  0  0  0  0  0  0  0
  1  3  1  0  0  0  0
  1  5  1  0  0  0  0
  1  6  2  0  0  0  0
  2  5  2  0  0  0  0
  2 11  1  0  0  0  0
  2  4  1  0  0  0  0
  6 10  1  0  0  0  0
  7  8  2  0  0  0  0
  7 12  1  0  0  0  0
  8  9  1  0  0  0  0
  9 10  2  0  0  0  0
 10 11  1  0  0  0  0
 11 12  2  0  0  0  0
M  END
>  <CHROM.1>
5.63182403,16.85194990,3.29831759,2.56528746,0.90415754,1.38419349

>  <Name>
ligand

>  <RI>
0

>  <Rbt.Current_Directory>
/home/itssahil/PROJECTS/Mol_Feturizer/New_Systems/rnas/4LX5

>  <Rbt.Executable>
rbdock ($Id: //depot/dev/client3/rdock/2013.1/src/exe/rbdock.cxx#4 $)

>  <Rbt.Library>
libRbt.so (2013.1, Build901 2013/11/27)

>  <Rbt.Parameter_File>
/export/apps/rDock/src/rDock_2013.1_src/data/scripts/dock_solv.prm

>  <Rbt.Receptor>
prm/blind_docking_60.prm

>  <SCORE>
-12.0779

>  <SCORE.INTER>
-12.0779

>  <SCORE.INTER.CONST>
1

>  <SCORE.INTER.POLAR>
0

>  <SCORE.INTER.ROT>
0

>  <SCORE.INTER.SOLV>
15.6698

>  <SCORE.INTER.VDW>
-16.8752

>  <SCORE.INTER.norm>
-1.00649

>  <SCORE.INTRA>
0

>  <SCORE.INTRA.DIHEDRAL>
0

>  <SCORE.INTRA.DIHEDRAL.0>
0

>  <SCORE.INTRA.POLAR>
0

>  <SCORE.INTRA.POLAR.0>
0

>  <SCORE.INTRA.REPUL>
0

>  <SCORE.INTRA.REPUL.0>
0

>  <SCORE.INTRA.SOLV>
0

>  <SCORE.INTRA.SOLV.lig_0>
-48.1583

>  <SCORE.INTRA.VDW>
0

>  <SCORE.INTRA.VDW.0>
0

>  <SCORE.INTRA.norm>
0

>  <SCORE.RESTR>
0

>  <SCORE.RESTR.CAVITY>
0

>  <SCORE.RESTR.norm>
0

>  <SCORE.SYSTEM>
0

>  <SCORE.SYSTEM.CONST>
0

>  <SCORE.SYSTEM.DIHEDRAL>
0

>  <SCORE.SYSTEM.SOLV>
0

>  <SCORE.SYSTEM.norm>
0

>  <SCORE.heavy>
12

>  <SCORE.norm>
-1.00649

>  <RMSD>
4.091

$$$$
ligand
 OpenBabel11021811503D
libRbt.so/2013.1/901 2013/11/27
 12 13  0  0  0  0  0  0  0  0999 V2000
    4.3925   15.3865    4.2773 C   0  0  0  0  0  0  0  0  0  0  0  0
    5.6267   17.2851    4.8313 C   0  0  0  0  0  0  0  0  0  0  0  0
    3.5715   14.4106    4.6547 N   0  0  0  0  0  0  0  0  0  0  0  0
    6.0849   18.1854    5.7080 N   0  0  0  0  0  0  0  0  0  0  0  0
    4.8197   16.2800    5.1962 N   0  0  0  0  0  0  0  0  0  0  0  0
    4.7632   15.4850    2.9813 N   0  0  0  0  0  0  0  0  0  0  0  0
    7.2862   18.5326    1.7724 N   0  0  0  0  0  0  0  0  0  0  0  0
    6.8178   17.5892    0.8450 C   0  0  0  0  0  0  0  0  0  0  0  0
    5.9631   16.5449    1.2690 N   0  0  0  0  0  0  0  0  0  0  0  0
    5.5876   16.4783    2.5645 C   0  0  0  0  0  0  0  0  0  0  0  0
    6.0364   17.4173    3.4988 C   0  0  0  0  0  0  0  0  0  0  0  0
    6.8883   18.4538    3.1217 C   0  0  0  0  0  0  0  0  0  0  0  0
  1  3  1  0  0  0  0
  1  5  1  0  0  0  0
  1  6  2  0  0  0  0
  2  5  2  0  0  0  0
  2 11  1  0  0  0  0
  2  4  1  0  0  0  0
  6 10  1  0  0  0  0
  7  8  2  0  0  0  0
  7 12  1  0  0  0  0
  8  9  1  0  0  0  0
  9 10  2  0  0  0  0
 10 11  1  0  0  0  0
 11 12  2  0  0  0  0
M  END
>  <CHROM.1>
5.63486818,16.81711889,3.40896248,2.67537123,0.91572148,1.25088337

>  <Name>
ligand

>  <RI>
0

>  <Rbt.Current_Directory>
/home/itssahil/PROJECTS/Mol_Feturizer/New_Systems/rnas/4LX5

>  <Rbt.Executable>
rbdock ($Id: //depot/dev/client3/rdock/2013.1/src/exe/rbdock.cxx#4 $)

>  <Rbt.Library>
libRbt.so (2013.1, Build901 2013/11/27)

>  <Rbt.Parameter_File>
/export/apps/rDock/src/rDock_2013.1_src/data/scripts/dock_solv.prm

>  <Rbt.Receptor>
prm/blind_docking_100.prm

>  <SCORE>
-12.0872

>  <SCORE.INTER>
-12.0872

>  <SCORE.INTER.CONST>
1

>  <SCORE.INTER.POLAR>
0

>  <SCORE.INTER.ROT>
0

>  <SCORE.INTER.SOLV>
16.9108

>  <SCORE.INTER.VDW>
-17.2951

>  <SCORE.INTER.norm>
-1.00726

>  <SCORE.INTRA>
0

>  <SCORE.INTRA.DIHEDRAL>
0

>  <SCORE.INTRA.DIHEDRAL.0>
0

>  <SCORE.INTRA.POLAR>
0

>  <SCORE.INTRA.POLAR.0>
0

>  <SCORE.INTRA.REPUL>
0

>  <SCORE.INTRA.REPUL.0>
0

>  <SCORE.INTRA.SOLV>
0

>  <SCORE.INTRA.SOLV.lig_0>
-48.1583

>  <SCORE.INTRA.VDW>
0

>  <SCORE.INTRA.VDW.0>
0

>  <SCORE.INTRA.norm>
0

>  <SCORE.RESTR>
0

>  <SCORE.RESTR.CAVITY>
0

>  <SCORE.RESTR.norm>
0

>  <SCORE.SYSTEM>
0

>  <SCORE.SYSTEM.CONST>
0

>  <SCORE.SYSTEM.DIHEDRAL>
0

>  <SCORE.SYSTEM.SOLV>
0

>  <SCORE.SYSTEM.norm>
0

>  <SCORE.heavy>
12

>  <SCORE.norm>
-1.00726

>  <RMSD>
4.093

$$$$
ligand
 OpenBabel11021811503D
libRbt.so/2013.1/901 2013/11/27
 12 13  0  0  0  0  0  0  0  0999 V2000
    4.3873   15.4206    4.1850 C   0  0  0  0  0  0  0  0  0  0  0  0
    5.7125   17.2588    4.7324 C   0  0  0  0  0  0  0  0  0  0  0  0
    3.5627   14.4531    4.5762 N   0  0  0  0  0  0  0  0  0  0  0  0
    6.2538   18.1083    5.6124 N   0  0  0  0  0  0  0  0  0  0  0  0
    4.9001   16.2623    5.1090 N   0  0  0  0  0  0  0  0  0  0  0  0
    4.6766   15.5630    2.8725 N   0  0  0  0  0  0  0  0  0  0  0  0
    7.2089   18.5865    1.6235 N   0  0  0  0  0  0  0  0  0  0  0  0
    6.6528   17.6964    0.6918 C   0  0  0  0  0  0  0  0  0  0  0  0
    5.7955   16.6597    1.1289 N   0  0  0  0  0  0  0  0  0  0  0  0
    5.5025   16.5493    2.4426 C   0  0  0  0  0  0  0  0  0  0  0  0
    6.0393   17.4353    3.3822 C   0  0  0  0  0  0  0  0  0  0  0  0
    6.8966   18.4624    2.9917 C   0  0  0  0  0  0  0  0  0  0  0  0
  1  3  1  0  0  0  0
  1  5  1  0  0  0  0
  1  6  2  0  0  0  0
  2  5  2  0  0  0  0
  2 11  1  0  0  0  0
  2  4  1  0  0  0  0
  6 10  1  0  0  0  0
  7  8  2  0  0  0  0
  7 12  1  0  0  0  0
  8  9  1  0  0  0  0
  9 10  2  0  0  0  0
 10 11  1  0  0  0  0
 11 12  2  0  0  0  0
M  END
>  <CHROM.1>
5.61452875,16.85090920,3.29497443,2.56054398,0.90356437,1.38263084

>  <Name>
ligand

>  <RI>
0

>  <Rbt.Current_Directory>
/home/itssahil/PROJECTS/Mol_Feturizer/New_Systems/rnas/4LX5

>  <Rbt.Executable>
rbdock ($Id: //depot/dev/client3/rdock/2013.1/src/exe/rbdock.cxx#4 $)

>  <Rbt.Library>
libRbt.so (2013.1, Build901 2013/11/27)

>  <Rbt.Parameter_File>
/export/apps/rDock/src/rDock_2013.1_src/data/scripts/dock_solv.prm

>  <Rbt.Receptor>
prm/blind_docking_40.prm

>  <SCORE>
-12.0655

>  <SCORE.INTER>
-12.0655

>  <SCORE.INTER.CONST>
1

>  <SCORE.INTER.POLAR>
0

>  <SCORE.INTER.ROT>
0

>  <SCORE.INTER.SOLV>
15.6302

>  <SCORE.INTER.VDW>
-16.8537

>  <SCORE.INTER.norm>
-1.00546

>  <SCORE.INTRA>
0

>  <SCORE.INTRA.DIHEDRAL>
0

>  <SCORE.INTRA.DIHEDRAL.0>
0

>  <SCORE.INTRA.POLAR>
0

>  <SCORE.INTRA.POLAR.0>
0

>  <SCORE.INTRA.REPUL>
0

>  <SCORE.INTRA.REPUL.0>
0

>  <SCORE.INTRA.SOLV>
0

>  <SCORE.INTRA.SOLV.lig_0>
-48.1583

>  <SCORE.INTRA.VDW>
0

>  <SCORE.INTRA.VDW.0>
0

>  <SCORE.INTRA.norm>
0

>  <SCORE.RESTR>
0

>  <SCORE.RESTR.CAVITY>
0

>  <SCORE.RESTR.norm>
0

>  <SCORE.SYSTEM>
0

>  <SCORE.SYSTEM.CONST>
0

>  <SCORE.SYSTEM.DIHEDRAL>
0

>  <SCORE.SYSTEM.SOLV>
0

>  <SCORE.SYSTEM.norm>
0

>  <SCORE.heavy>
12

>  <SCORE.norm>
-1.00546

>  <RMSD>
4.099

$$$$
ligand
 OpenBabel11021811503D
libRbt.so/2013.1/901 2013/11/27
 12 13  0  0  0  0  0  0  0  0999 V2000
    4.2681   15.4898    4.0993 C   0  0  0  0  0  0  0  0  0  0  0  0
    5.6896   17.2496    4.6628 C   0  0  0  0  0  0  0  0  0  0  0  0
    3.4006   14.5577    4.4833 N   0  0  0  0  0  0  0  0  0  0  0  0
    6.2825   18.0550    5.5509 N   0  0  0  0  0  0  0  0  0  0  0  0
    4.8327   16.2881    5.0316 N   0  0  0  0  0  0  0  0  0  0  0  0
    4.5494   15.6414    2.7861 N   0  0  0  0  0  0  0  0  0  0  0  0
    7.2156   18.5574    1.5598 N   0  0  0  0  0  0  0  0  0  0  0  0
    6.6053   17.7131    0.6194 C   0  0  0  0  0  0  0  0  0  0  0  0
    5.7022   16.7126    1.0486 N   0  0  0  0  0  0  0  0  0  0  0  0
    5.4187   16.5931    2.3636 C   0  0  0  0  0  0  0  0  0  0  0  0
    6.0097   17.4341    3.3121 C   0  0  0  0  0  0  0  0  0  0  0  0
    6.9128   18.4241    2.9294 C   0  0  0  0  0  0  0  0  0  0  0  0
  1  3  1  0  0  0  0
  1  5  1  0  0  0  0
  1  6  2  0  0  0  0
  2  5  2  0  0  0  0
  2 11  1  0  0  0  0
  2  4  1  0  0  0  0
  6 10  1  0  0  0  0
  7  8  2  0  0  0  0
  7 12  1  0  0  0  0
  8  9  1  0  0  0  0
  9 10  2  0  0  0  0
 10 11  1  0  0  0  0
 11 12  2  0  0  0  0
M  END
>  <CHROM.1>
5.55527616,16.87324073,3.21971769,2.52947162,0.85630013,1.42445839

>  <Name>
ligand

>  <RI>
0

>  <Rbt.Current_Directory>
/home/itssahil/PROJECTS/Mol_Feturizer/New_Systems/rnas/4LX5

>  <Rbt.Executable>
rbdock ($Id: //depot/dev/client3/rdock/2013.1/src/exe/rbdock.cxx#4 $)

>  <Rbt.Library>
libRbt.so (2013.1, Build901 2013/11/27)

>  <Rbt.Parameter_File>
/export/apps/rDock/src/rDock_2013.1_src/data/scripts/dock_solv.prm

>  <Rbt.Receptor>
prm/blind_docking_60.prm

>  <SCORE>
-12.0655

>  <SCORE.INTER>
-12.0655

>  <SCORE.INTER.CONST>
1

>  <SCORE.INTER.POLAR>
0

>  <SCORE.INTER.ROT>
0

>  <SCORE.INTER.SOLV>
14.6116

>  <SCORE.INTER.VDW>
-16.5142

>  <SCORE.INTER.norm>
-1.00546

>  <SCORE.INTRA>
0

>  <SCORE.INTRA.DIHEDRAL>
0

>  <SCORE.INTRA.DIHEDRAL.0>
0

>  <SCORE.INTRA.POLAR>
0

>  <SCORE.INTRA.POLAR.0>
0

>  <SCORE.INTRA.REPUL>
0

>  <SCORE.INTRA.REPUL.0>
0

>  <SCORE.INTRA.SOLV>
0

>  <SCORE.INTRA.SOLV.lig_0>
-48.1583

>  <SCORE.INTRA.VDW>
0

>  <SCORE.INTRA.VDW.0>
0

>  <SCORE.INTRA.norm>
0

>  <SCORE.RESTR>
0

>  <SCORE.RESTR.CAVITY>
0

>  <SCORE.RESTR.norm>
0

>  <SCORE.SYSTEM>
0

>  <SCORE.SYSTEM.CONST>
0

>  <SCORE.SYSTEM.DIHEDRAL>
0

>  <SCORE.SYSTEM.SOLV>
0

>  <SCORE.SYSTEM.norm>
0

>  <SCORE.heavy>
12

>  <SCORE.norm>
-1.00546

>  <RMSD>
4.107

$$$$
ligand
 OpenBabel11021811503D
libRbt.so/2013.1/901 2013/11/27
 12 13  0  0  0  0  0  0  0  0999 V2000
    4.3104   15.5001    4.1226 C   0  0  0  0  0  0  0  0  0  0  0  0
    5.7250   17.2709    4.6683 C   0  0  0  0  0  0  0  0  0  0  0  0
    3.4514   14.5643    4.5168 N   0  0  0  0  0  0  0  0  0  0  0  0
    6.3194   18.0836    5.5488 N   0  0  0  0  0  0  0  0  0  0  0  0
    4.8768   16.3058    5.0474 N   0  0  0  0  0  0  0  0  0  0  0  0
    4.5812   15.6478    2.8067 N   0  0  0  0  0  0  0  0  0  0  0  0
    7.2205   18.5747    1.5489 N   0  0  0  0  0  0  0  0  0  0  0  0
    6.6086   17.7227    0.6165 C   0  0  0  0  0  0  0  0  0  0  0  0
    5.7149   16.7186    1.0564 N   0  0  0  0  0  0  0  0  0  0  0  0
    5.4416   16.6030    2.3739 C   0  0  0  0  0  0  0  0  0  0  0  0
    6.0342   17.4516    3.3146 C   0  0  0  0  0  0  0  0  0  0  0  0
    6.9285   18.4455    2.9211 C   0  0  0  0  0  0  0  0  0  0  0  0
  1  3  1  0  0  0  0
  1  5  1  0  0  0  0
  1  6  2  0  0  0  0
  2  5  2  0  0  0  0
  2 11  1  0  0  0  0
  2  4  1  0  0  0  0
  6 10  1  0  0  0  0
  7  8  2  0  0  0  0
  7 12  1  0  0  0  0
  8  9  1  0  0  0  0
  9 10  2  0  0  0  0
 10 11  1  0  0  0  0
 11 12  2  0  0  0  0
M  END
>  <CHROM.1>
5.58260467,16.88756385,3.22785289,2.51985513,0.86340118,1.42751103

>  <Name>
ligand

>  <RI>
0

>  <Rbt.Current_Directory>
/home/itssahil/PROJECTS/Mol_Feturizer/New_Systems/rnas/4LX5

>  <Rbt.Executable>
rbdock ($Id: //depot/dev/client3/rdock/2013.1/src/exe/rbdock.cxx#4 $)

>  <Rbt.Library>
libRbt.so (2013.1, Build901 2013/11/27)

>  <Rbt.Parameter_File>
/export/apps/rDock/src/rDock_2013.1_src/data/scripts/dock_solv.prm

>  <Rbt.Receptor>
prm/blind_docking_80.prm

>  <SCORE>
-12.0849

>  <SCORE.INTER>
-12.0849

>  <SCORE.INTER.CONST>
1

>  <SCORE.INTER.POLAR>
0

>  <SCORE.INTER.ROT>
0

>  <SCORE.INTER.SOLV>
14.7589

>  <SCORE.INTER.VDW>
-16.5762

>  <SCORE.INTER.norm>
-1.00708

>  <SCORE.INTRA>
0

>  <SCORE.INTRA.DIHEDRAL>
0

>  <SCORE.INTRA.DIHEDRAL.0>
0

>  <SCORE.INTRA.POLAR>
0

>  <SCORE.INTRA.POLAR.0>
0

>  <SCORE.INTRA.REPUL>
0

>  <SCORE.INTRA.REPUL.0>
0

>  <SCORE.INTRA.SOLV>
0

>  <SCORE.INTRA.SOLV.lig_0>
-48.1583

>  <SCORE.INTRA.VDW>
0

>  <SCORE.INTRA.VDW.0>
0

>  <SCORE.INTRA.norm>
0

>  <SCORE.RESTR>
0

>  <SCORE.RESTR.CAVITY>
0

>  <SCORE.RESTR.norm>
0

>  <SCORE.SYSTEM>
0

>  <SCORE.SYSTEM.CONST>
0

>  <SCORE.SYSTEM.DIHEDRAL>
0

>  <SCORE.SYSTEM.SOLV>
0

>  <SCORE.SYSTEM.norm>
0

>  <SCORE.heavy>
12

>  <SCORE.norm>
-1.00708

>  <RMSD>
4.108

$$$$
ligand
 OpenBabel11021811503D
libRbt.so/2013.1/901 2013/11/27
 12 13  0  0  0  0  0  0  0  0999 V2000
    4.2706   15.4807    4.1091 C   0  0  0  0  0  0  0  0  0  0  0  0
    5.6855   17.2480    4.6656 C   0  0  0  0  0  0  0  0  0  0  0  0
    3.4081   14.5457    4.4971 N   0  0  0  0  0  0  0  0  0  0  0  0
    6.2768   18.0580    5.5506 N   0  0  0  0  0  0  0  0  0  0  0  0
    4.8337   16.2836    5.0384 N   0  0  0  0  0  0  0  0  0  0  0  0
    4.5483   15.6307    2.7950 N   0  0  0  0  0  0  0  0  0  0  0  0
    7.1989   18.5556    1.5563 N   0  0  0  0  0  0  0  0  0  0  0  0
    6.5903   17.7065    0.6192 C   0  0  0  0  0  0  0  0  0  0  0  0
    5.6926   16.7030    1.0525 N   0  0  0  0  0  0  0  0  0  0  0  0
    5.4125   16.5852    2.3684 C   0  0  0  0  0  0  0  0  0  0  0  0
    6.0018   17.4309    3.3138 C   0  0  0  0  0  0  0  0  0  0  0  0
    6.8997   18.4240    2.9269 C   0  0  0  0  0  0  0  0  0  0  0  0
  1  3  1  0  0  0  0
  1  5  1  0  0  0  0
  1  6  2  0  0  0  0
  2  5  2  0  0  0  0
  2 11  1  0  0  0  0
  2  4  1  0  0  0  0
  6 10  1  0  0  0  0
  7  8  2  0  0  0  0
  7 12  1  0  0  0  0
  8  9  1  0  0  0  0
  9 10  2  0  0  0  0
 10 11  1  0  0  0  0
 11 12  2  0  0  0  0
M  END
>  <CHROM.1>
5.54968932,16.86784424,3.22365285,2.52713507,0.86097599,1.42400034

>  <Name>
ligand

>  <RI>
0

>  <Rbt.Current_Directory>
/home/itssahil/PROJECTS/Mol_Feturizer/New_Systems/rnas/4LX5

>  <Rbt.Executable>
rbdock ($Id: //depot/dev/client3/rdock/2013.1/src/exe/rbdock.cxx#4 $)

>  <Rbt.Library>
libRbt.so (2013.1, Build901 2013/11/27)

>  <Rbt.Parameter_File>
/export/apps/rDock/src/rDock_2013.1_src/data/scripts/dock_solv.prm

>  <Rbt.Receptor>
prm/blind_docking_60.prm

>  <SCORE>
-12.0711

>  <SCORE.INTER>
-12.0711

>  <SCORE.INTER.CONST>
1

>  <SCORE.INTER.POLAR>
0

>  <SCORE.INTER.ROT>
0

>  <SCORE.INTER.SOLV>
14.671

>  <SCORE.INTER.VDW>
-16.5378

>  <SCORE.INTER.norm>
-1.00593

>  <SCORE.INTRA>
0

>  <SCORE.INTRA.DIHEDRAL>
0

>  <SCORE.INTRA.DIHEDRAL.0>
0

>  <SCORE.INTRA.POLAR>
0

>  <SCORE.INTRA.POLAR.0>
0

>  <SCORE.INTRA.REPUL>
0

>  <SCORE.INTRA.REPUL.0>
0

>  <SCORE.INTRA.SOLV>
0

>  <SCORE.INTRA.SOLV.lig_0>
-48.1583

>  <SCORE.INTRA.VDW>
0

>  <SCORE.INTRA.VDW.0>
0

>  <SCORE.INTRA.norm>
0

>  <SCORE.RESTR>
0

>  <SCORE.RESTR.CAVITY>
0

>  <SCORE.RESTR.norm>
0

>  <SCORE.SYSTEM>
0

>  <SCORE.SYSTEM.CONST>
0

>  <SCORE.SYSTEM.DIHEDRAL>
0

>  <SCORE.SYSTEM.SOLV>
0

>  <SCORE.SYSTEM.norm>
0

>  <SCORE.heavy>
12

>  <SCORE.norm>
-1.00593

>  <RMSD>
4.110

$$$$
ligand
 OpenBabel11021811503D
libRbt.so/2013.1/901 2013/11/27
 12 13  0  0  0  0  0  0  0  0999 V2000
    4.2793   15.4889    4.1259 C   0  0  0  0  0  0  0  0  0  0  0  0
    5.7113   17.2468    4.6679 C   0  0  0  0  0  0  0  0  0  0  0  0
    3.4135   14.5605    4.5224 N   0  0  0  0  0  0  0  0  0  0  0  0
    6.3158   18.0537    5.5469 N   0  0  0  0  0  0  0  0  0  0  0  0
    4.8559   16.2890    5.0492 N   0  0  0  0  0  0  0  0  0  0  0  0
    4.5470   15.6351    2.8092 N   0  0  0  0  0  0  0  0  0  0  0  0
    7.2077   18.5395    1.5443 N   0  0  0  0  0  0  0  0  0  0  0  0
    6.5852   17.6936    0.6135 C   0  0  0  0  0  0  0  0  0  0  0  0
    5.6841   16.6970    1.0557 N   0  0  0  0  0  0  0  0  0  0  0  0
    5.4143   16.5830    2.3741 C   0  0  0  0  0  0  0  0  0  0  0  0
    6.0175   17.4257    3.3133 C   0  0  0  0  0  0  0  0  0  0  0  0
    6.9192   18.4119    2.9174 C   0  0  0  0  0  0  0  0  0  0  0  0
  1  3  1  0  0  0  0
  1  5  1  0  0  0  0
  1  6  2  0  0  0  0
  2  5  2  0  0  0  0
  2 11  1  0  0  0  0
  2  4  1  0  0  0  0
  6 10  1  0  0  0  0
  7  8  2  0  0  0  0
  7 12  1  0  0  0  0
  8  9  1  0  0  0  0
  9 10  2  0  0  0  0
 10 11  1  0  0  0  0
 11 12  2  0  0  0  0
M  END
>  <CHROM.1>
5.56069607,16.86573588,3.22772868,2.51285999,0.85515353,1.43345190

>  <Name>
ligand

>  <RI>
0

>  <Rbt.Current_Directory>
/home/itssahil/PROJECTS/Mol_Feturizer/New_Systems/rnas/4LX5

>  <Rbt.Executable>
rbdock ($Id: //depot/dev/client3/rdock/2013.1/src/exe/rbdock.cxx#4 $)

>  <Rbt.Library>
libRbt.so (2013.1, Build901 2013/11/27)

>  <Rbt.Parameter_File>
/export/apps/rDock/src/rDock_2013.1_src/data/scripts/dock_solv.prm

>  <Rbt.Receptor>
prm/pocket_docking_5.prm

>  <SCORE>
-12.0742

>  <SCORE.INTER>
-12.0742

>  <SCORE.INTER.CONST>
1

>  <SCORE.INTER.POLAR>
0

>  <SCORE.INTER.ROT>
0

>  <SCORE.INTER.SOLV>
14.667

>  <SCORE.INTER.VDW>
-16.5384

>  <SCORE.INTER.norm>
-1.00618

>  <SCORE.INTRA>
0

>  <SCORE.INTRA.DIHEDRAL>
0

>  <SCORE.INTRA.DIHEDRAL.0>
0

>  <SCORE.INTRA.POLAR>
0

>  <SCORE.INTRA.POLAR.0>
0

>  <SCORE.INTRA.REPUL>
0

>  <SCORE.INTRA.REPUL.0>
0

>  <SCORE.INTRA.SOLV>
0

>  <SCORE.INTRA.SOLV.lig_0>
-48.1583

>  <SCORE.INTRA.VDW>
0

>  <SCORE.INTRA.VDW.0>
0

>  <SCORE.INTRA.norm>
0

>  <SCORE.RESTR>
0

>  <SCORE.RESTR.CAVITY>
0

>  <SCORE.RESTR.norm>
0

>  <SCORE.SYSTEM>
0

>  <SCORE.SYSTEM.CONST>
0

>  <SCORE.SYSTEM.DIHEDRAL>
0

>  <SCORE.SYSTEM.SOLV>
0

>  <SCORE.SYSTEM.norm>
0

>  <SCORE.heavy>
12

>  <SCORE.norm>
-1.00618

>  <RMSD>
4.115

$$$$
ligand
 OpenBabel11021811503D
libRbt.so/2013.1/901 2013/11/27
 12 13  0  0  0  0  0  0  0  0999 V2000
    3.6270   15.4371    4.0318 C   0  0  0  0  0  0  0  0  0  0  0  0
    5.3327   16.9209    4.6008 C   0  0  0  0  0  0  0  0  0  0  0  0
    2.6430   14.6297    4.4174 N   0  0  0  0  0  0  0  0  0  0  0  0
    6.0865   17.5727    5.4930 N   0  0  0  0  0  0  0  0  0  0  0  0
    4.3538   16.0837    4.9692 N   0  0  0  0  0  0  0  0  0  0  0  0
    3.8658   15.6185    2.7140 N   0  0  0  0  0  0  0  0  0  0  0  0
    6.8959   18.1531    1.4854 N   0  0  0  0  0  0  0  0  0  0  0  0
    6.1164   17.4685    0.5403 C   0  0  0  0  0  0  0  0  0  0  0  0
    5.0887   16.5966    0.9695 N   0  0  0  0  0  0  0  0  0  0  0  0
    4.8529   16.4471    2.2909 C   0  0  0  0  0  0  0  0  0  0  0  0
    5.6132   17.1309    3.2451 C   0  0  0  0  0  0  0  0  0  0  0  0
    6.6415   17.9898    2.8616 C   0  0  0  0  0  0  0  0  0  0  0  0
  1  3  1  0  0  0  0
  1  5  1  0  0  0  0
  1  6  2  0  0  0  0
  2  5  2  0  0  0  0
  2 11  1  0  0  0  0
  2  4  1  0  0  0  0
  6 10  1  0  0  0  0
  7  8  2  0  0  0  0
  7 12  1  0  0  0  0
  8  9  1  0  0  0  0
  9 10  2  0  0  0  0
 10 11  1  0  0  0  0
 11 12  2  0  0  0  0
M  END
>  <CHROM.1>
5.07234517,16.65319425,3.15076892,2.43743531,0.70464493,1.54311484

>  <Name>
ligand

>  <RI>
0

>  <Rbt.Current_Directory>
/home/itssahil/PROJECTS/Mol_Feturizer/New_Systems/rnas/4LX5

>  <Rbt.Executable>
rbdock ($Id: //depot/dev/client3/rdock/2013.1/src/exe/rbdock.cxx#4 $)

>  <Rbt.Library>
libRbt.so (2013.1, Build901 2013/11/27)

>  <Rbt.Parameter_File>
/export/apps/rDock/src/rDock_2013.1_src/data/scripts/dock_solv.prm

>  <Rbt.Receptor>
prm/blind_docking_20.prm

>  <SCORE>
-9.42518

>  <SCORE.INTER>
-9.48822

>  <SCORE.INTER.CONST>
1

>  <SCORE.INTER.POLAR>
0

>  <SCORE.INTER.ROT>
0

>  <SCORE.INTER.SOLV>
14.8038

>  <SCORE.INTER.VDW>
-14.8601

>  <SCORE.INTER.norm>
-0.790685

>  <SCORE.INTRA>
0

>  <SCORE.INTRA.DIHEDRAL>
0

>  <SCORE.INTRA.DIHEDRAL.0>
0

>  <SCORE.INTRA.POLAR>
0

>  <SCORE.INTRA.POLAR.0>
0

>  <SCORE.INTRA.REPUL>
0

>  <SCORE.INTRA.REPUL.0>
0

>  <SCORE.INTRA.SOLV>
0

>  <SCORE.INTRA.SOLV.lig_0>
-48.1583

>  <SCORE.INTRA.VDW>
0

>  <SCORE.INTRA.VDW.0>
0

>  <SCORE.INTRA.norm>
0

>  <SCORE.RESTR>
0.0630389

>  <SCORE.RESTR.CAVITY>
0.0630389

>  <SCORE.RESTR.norm>
0.00525324

>  <SCORE.SYSTEM>
0

>  <SCORE.SYSTEM.CONST>
0

>  <SCORE.SYSTEM.DIHEDRAL>
0

>  <SCORE.SYSTEM.SOLV>
0

>  <SCORE.SYSTEM.norm>
0

>  <SCORE.heavy>
12

>  <SCORE.norm>
-0.785432

>  <RMSD>
4.238

$$$$
ligand
 OpenBabel11021811503D
libRbt.so/2013.1/901 2013/11/27
 12 13  0  0  0  0  0  0  0  0999 V2000
    3.6125   15.4469    4.0418 C   0  0  0  0  0  0  0  0  0  0  0  0
    5.3167   16.9317    4.6126 C   0  0  0  0  0  0  0  0  0  0  0  0
    2.6257   14.6423    4.4262 N   0  0  0  0  0  0  0  0  0  0  0  0
    6.0666   17.5870    5.5056 N   0  0  0  0  0  0  0  0  0  0  0  0
    4.3351   16.0973    4.9799 N   0  0  0  0  0  0  0  0  0  0  0  0
    3.8583   15.6218    2.7244 N   0  0  0  0  0  0  0  0  0  0  0  0
    6.8974   18.1475    1.4996 N   0  0  0  0  0  0  0  0  0  0  0  0
    6.1221   17.4592    0.5537 C   0  0  0  0  0  0  0  0  0  0  0  0
    5.0913   16.5904    0.9817 N   0  0  0  0  0  0  0  0  0  0  0  0
    4.8484   16.4474    2.3025 C   0  0  0  0  0  0  0  0  0  0  0  0
    5.6044   17.1350    3.2574 C   0  0  0  0  0  0  0  0  0  0  0  0
    6.6356   17.9911    2.8752 C   0  0  0  0  0  0  0  0  0  0  0  0
  1  3  1  0  0  0  0
  1  5  1  0  0  0  0
  1  6  2  0  0  0  0
  2  5  2  0  0  0  0
  2 11  1  0  0  0  0
  2  4  1  0  0  0  0
  6 10  1  0  0  0  0
  7  8  2  0  0  0  0
  7 12  1  0  0  0  0
  8  9  1  0  0  0  0
  9 10  2  0  0  0  0
 10 11  1  0  0  0  0
 11 12  2  0  0  0  0
M  END
>  <CHROM.1>
5.06363506,16.65735777,3.16253010,2.44421446,0.70348045,1.53396903

>  <Name>
ligand

>  <RI>
0

>  <Rbt.Current_Directory>
/home/itssahil/PROJECTS/Mol_Feturizer/New_Systems/rnas/4LX5

>  <Rbt.Executable>
rbdock ($Id: //depot/dev/client3/rdock/2013.1/src/exe/rbdock.cxx#4 $)

>  <Rbt.Library>
libRbt.so (2013.1, Build901 2013/11/27)

>  <Rbt.Parameter_File>
/export/apps/rDock/src/rDock_2013.1_src/data/scripts/dock_solv.prm

>  <Rbt.Receptor>
prm/blind_docking_20.prm

>  <SCORE>
-9.40442

>  <SCORE.INTER>
-9.45223

>  <SCORE.INTER.CONST>
1

>  <SCORE.INTER.POLAR>
0

>  <SCORE.INTER.ROT>
0

>  <SCORE.INTER.SOLV>
14.8776

>  <SCORE.INTER.VDW>
-14.8607

>  <SCORE.INTER.norm>
-0.787686

>  <SCORE.INTRA>
0

>  <SCORE.INTRA.DIHEDRAL>
0

>  <SCORE.INTRA.DIHEDRAL.0>
0

>  <SCORE.INTRA.POLAR>
0

>  <SCORE.INTRA.POLAR.0>
0

>  <SCORE.INTRA.REPUL>
0

>  <SCORE.INTRA.REPUL.0>
0

>  <SCORE.INTRA.SOLV>
0

>  <SCORE.INTRA.SOLV.lig_0>
-48.1583

>  <SCORE.INTRA.VDW>
0

>  <SCORE.INTRA.VDW.0>
0

>  <SCORE.INTRA.norm>
0

>  <SCORE.RESTR>
0.0478129

>  <SCORE.RESTR.CAVITY>
0.0478129

>  <SCORE.RESTR.norm>
0.00398441

>  <SCORE.SYSTEM>
0

>  <SCORE.SYSTEM.CONST>
0

>  <SCORE.SYSTEM.DIHEDRAL>
0

>  <SCORE.SYSTEM.SOLV>
0

>  <SCORE.SYSTEM.norm>
0

>  <SCORE.heavy>
12

>  <SCORE.norm>
-0.783701

>  <RMSD>
4.239

$$$$
ligand
 OpenBabel11021811503D
libRbt.so/2013.1/901 2013/11/27
 12 13  0  0  0  0  0  0  0  0999 V2000
    3.6113   15.4345    4.0423 C   0  0  0  0  0  0  0  0  0  0  0  0
    5.3191   16.9147    4.6145 C   0  0  0  0  0  0  0  0  0  0  0  0
    2.6226   14.6318    4.4259 N   0  0  0  0  0  0  0  0  0  0  0  0
    6.0706   17.5672    5.5081 N   0  0  0  0  0  0  0  0  0  0  0  0
    4.3355   16.0822    4.9810 N   0  0  0  0  0  0  0  0  0  0  0  0
    3.8573   15.6104    2.7250 N   0  0  0  0  0  0  0  0  0  0  0  0
    6.9021   18.1303    1.5026 N   0  0  0  0  0  0  0  0  0  0  0  0
    6.1250   17.4449    0.5560 C   0  0  0  0  0  0  0  0  0  0  0  0
    5.0922   16.5780    0.9832 N   0  0  0  0  0  0  0  0  0  0  0  0
    4.8492   16.4341    2.3039 C   0  0  0  0  0  0  0  0  0  0  0  0
    5.6070   17.1188    3.2594 C   0  0  0  0  0  0  0  0  0  0  0  0
    6.6402   17.9729    2.8780 C   0  0  0  0  0  0  0  0  0  0  0  0
  1  3  1  0  0  0  0
  1  5  1  0  0  0  0
  1  6  2  0  0  0  0
  2  5  2  0  0  0  0
  2 11  1  0  0  0  0
  2  4  1  0  0  0  0
  6 10  1  0  0  0  0
  7  8  2  0  0  0  0
  7 12  1  0  0  0  0
  8  9  1  0  0  0  0
  9 10  2  0  0  0  0
 10 11  1  0  0  0  0
 11 12  2  0  0  0  0
M  END
>  <CHROM.1>
5.06509000,16.64259819,3.16412223,2.44388967,0.70113268,1.53530717

>  <Name>
ligand

>  <RI>
0

>  <Rbt.Current_Directory>
/home/itssahil/PROJECTS/Mol_Feturizer/New_Systems/rnas/4LX5

>  <Rbt.Executable>
rbdock ($Id: //depot/dev/client3/rdock/2013.1/src/exe/rbdock.cxx#4 $)

>  <Rbt.Library>
libRbt.so (2013.1, Build901 2013/11/27)

>  <Rbt.Parameter_File>
/export/apps/rDock/src/rDock_2013.1_src/data/scripts/dock_solv.prm

>  <Rbt.Receptor>
prm/blind_docking_20.prm

>  <SCORE>
-9.35255

>  <SCORE.INTER>
-9.38305

>  <SCORE.INTER.CONST>
1

>  <SCORE.INTER.POLAR>
0

>  <SCORE.INTER.ROT>
0

>  <SCORE.INTER.SOLV>
14.906

>  <SCORE.INTER.VDW>
-14.824

>  <SCORE.INTER.norm>
-0.781921

>  <SCORE.INTRA>
0

>  <SCORE.INTRA.DIHEDRAL>
0

>  <SCORE.INTRA.DIHEDRAL.0>
0

>  <SCORE.INTRA.POLAR>
0

>  <SCORE.INTRA.POLAR.0>
0

>  <SCORE.INTRA.REPUL>
0

>  <SCORE.INTRA.REPUL.0>
0

>  <SCORE.INTRA.SOLV>
0

>  <SCORE.INTRA.SOLV.lig_0>
-48.1583

>  <SCORE.INTRA.VDW>
0

>  <SCORE.INTRA.VDW.0>
0

>  <SCORE.INTRA.norm>
0

>  <SCORE.RESTR>
0.0305025

>  <SCORE.RESTR.CAVITY>
0.0305025

>  <SCORE.RESTR.norm>
0.00254188

>  <SCORE.SYSTEM>
0

>  <SCORE.SYSTEM.CONST>
0

>  <SCORE.SYSTEM.DIHEDRAL>
0

>  <SCORE.SYSTEM.SOLV>
0

>  <SCORE.SYSTEM.norm>
0

>  <SCORE.heavy>
12

>  <SCORE.norm>
-0.779379

>  <RMSD>
4.241

$$$$
ligand
 OpenBabel11021811503D
libRbt.so/2013.1/901 2013/11/27
 12 13  0  0  0  0  0  0  0  0999 V2000
    4.8107   15.6113    2.8396 C   0  0  0  0  0  0  0  0  0  0  0  0
    3.6683   14.2215    4.3223 C   0  0  0  0  0  0  0  0  0  0  0  0
    5.9339   15.9101    2.1929 N   0  0  0  0  0  0  0  0  0  0  0  0
    3.6099   13.1918    5.1739 N   0  0  0  0  0  0  0  0  0  0  0  0
    4.7964   14.5543    3.6808 N   0  0  0  0  0  0  0  0  0  0  0  0
    3.6990   16.3495    2.6255 N   0  0  0  0  0  0  0  0  0  0  0  0
    0.1816   15.4199    4.5950 N   0  0  0  0  0  0  0  0  0  0  0  0
    0.2331   16.5074    3.7094 C   0  0  0  0  0  0  0  0  0  0  0  0
    1.4424   16.8238    3.0476 N   0  0  0  0  0  0  0  0  0  0  0  0
    2.5355   16.0594    3.2595 C   0  0  0  0  0  0  0  0  0  0  0  0
    2.4976   14.9654    4.1300 C   0  0  0  0  0  0  0  0  0  0  0  0
    1.3279   14.6290    4.8089 C   0  0  0  0  0  0  0  0  0  0  0  0
  1  3  1  0  0  0  0
  1  5  1  0  0  0  0
  1  6  2  0  0  0  0
  2  5  2  0  0  0  0
  2 11  1  0  0  0  0
  2  4  1  0  0  0  0
  6 10  1  0  0  0  0
  7  8  2  0  0  0  0
  7 12  1  0  0  0  0
  8  9  1  0  0  0  0
  9 10  2  0  0  0  0
 10 11  1  0  0  0  0
 11 12  2  0  0  0  0
M  END
>  <CHROM.1>
2.92402679,15.35524581,3.68757792,0.07101550,0.26592318,-0.67078760

>  <Name>
ligand

>  <RI>
0

>  <Rbt.Current_Directory>
/home/itssahil/PROJECTS/Mol_Feturizer/New_Systems/rnas/4LX5

>  <Rbt.Executable>
rbdock ($Id: //depot/dev/client3/rdock/2013.1/src/exe/rbdock.cxx#4 $)

>  <Rbt.Library>
libRbt.so (2013.1, Build901 2013/11/27)

>  <Rbt.Parameter_File>
/export/apps/rDock/src/rDock_2013.1_src/data/scripts/dock_solv.prm

>  <Rbt.Receptor>
prm/blind_docking_20.prm

>  <SCORE>
-6.30374

>  <SCORE.INTER>
-6.30374

>  <SCORE.INTER.CONST>
1

>  <SCORE.INTER.POLAR>
0

>  <SCORE.INTER.ROT>
0

>  <SCORE.INTER.SOLV>
18.6988

>  <SCORE.INTER.VDW>
-14.0354

>  <SCORE.INTER.norm>
-0.525311

>  <SCORE.INTRA>
0

>  <SCORE.INTRA.DIHEDRAL>
0

>  <SCORE.INTRA.DIHEDRAL.0>
0

>  <SCORE.INTRA.POLAR>
0

>  <SCORE.INTRA.POLAR.0>
0

>  <SCORE.INTRA.REPUL>
0

>  <SCORE.INTRA.REPUL.0>
0

>  <SCORE.INTRA.SOLV>
0

>  <SCORE.INTRA.SOLV.lig_0>
-48.1583

>  <SCORE.INTRA.VDW>
0

>  <SCORE.INTRA.VDW.0>
0

>  <SCORE.INTRA.norm>
0

>  <SCORE.RESTR>
0

>  <SCORE.RESTR.CAVITY>
0

>  <SCORE.RESTR.norm>
0

>  <SCORE.SYSTEM>
0

>  <SCORE.SYSTEM.CONST>
0

>  <SCORE.SYSTEM.DIHEDRAL>
0

>  <SCORE.SYSTEM.SOLV>
0

>  <SCORE.SYSTEM.norm>
0

>  <SCORE.heavy>
12

>  <SCORE.norm>
-0.525311

>  <RMSD>
4.406

$$$$
ligand
 OpenBabel11021811503D
libRbt.so/2013.1/901 2013/11/27
 12 13  0  0  0  0  0  0  0  0999 V2000
    4.7723   15.6502    2.7983 C   0  0  0  0  0  0  0  0  0  0  0  0
    3.6763   14.2373    4.2940 C   0  0  0  0  0  0  0  0  0  0  0  0
    5.8807   15.9706    2.1367 N   0  0  0  0  0  0  0  0  0  0  0  0
    3.6486   13.2053    5.1445 N   0  0  0  0  0  0  0  0  0  0  0  0
    4.7891   14.5917    3.6377 N   0  0  0  0  0  0  0  0  0  0  0  0
    3.6443   16.3681    2.6009 N   0  0  0  0  0  0  0  0  0  0  0  0
    0.1723   15.3708    4.6170 N   0  0  0  0  0  0  0  0  0  0  0  0
    0.1914   16.4605    3.7328 C   0  0  0  0  0  0  0  0  0  0  0  0
    1.3855   16.8001    3.0550 N   0  0  0  0  0  0  0  0  0  0  0  0
    2.4952   16.0556    3.2503 C   0  0  0  0  0  0  0  0  0  0  0  0
    2.4895   14.9598    4.1193 C   0  0  0  0  0  0  0  0  0  0  0  0
    1.3357   14.6008    4.8136 C   0  0  0  0  0  0  0  0  0  0  0  0
  1  3  1  0  0  0  0
  1  5  1  0  0  0  0
  1  6  2  0  0  0  0
  2  5  2  0  0  0  0
  2 11  1  0  0  0  0
  2  4  1  0  0  0  0
  6 10  1  0  0  0  0
  7  8  2  0  0  0  0
  7 12  1  0  0  0  0
  8  9  1  0  0  0  0
  9 10  2  0  0  0  0
 10 11  1  0  0  0  0
 11 12  2  0  0  0  0
M  END
>  <CHROM.1>
2.90255762,15.35808305,3.67173544,0.09484876,0.26525913,-0.67533401

>  <Name>
ligand

>  <RI>
0

>  <Rbt.Current_Directory>
/home/itssahil/PROJECTS/Mol_Feturizer/New_Systems/rnas/4LX5

>  <Rbt.Executable>
rbdock ($Id: //depot/dev/client3/rdock/2013.1/src/exe/rbdock.cxx#4 $)

>  <Rbt.Library>
libRbt.so (2013.1, Build901 2013/11/27)

>  <Rbt.Parameter_File>
/export/apps/rDock/src/rDock_2013.1_src/data/scripts/dock_solv.prm

>  <Rbt.Receptor>
prm/blind_docking_20.prm

>  <SCORE>
-6.29317

>  <SCORE.INTER>
-6.29317

>  <SCORE.INTER.CONST>
1

>  <SCORE.INTER.POLAR>
0

>  <SCORE.INTER.ROT>
0

>  <SCORE.INTER.SOLV>
18.4806

>  <SCORE.INTER.VDW>
-13.9556

>  <SCORE.INTER.norm>
-0.524431

>  <SCORE.INTRA>
0

>  <SCORE.INTRA.DIHEDRAL>
0

>  <SCORE.INTRA.DIHEDRAL.0>
0

>  <SCORE.INTRA.POLAR>
0

>  <SCORE.INTRA.POLAR.0>
0

>  <SCORE.INTRA.REPUL>
0

>  <SCORE.INTRA.REPUL.0>
0

>  <SCORE.INTRA.SOLV>
0

>  <SCORE.INTRA.SOLV.lig_0>
-48.1583

>  <SCORE.INTRA.VDW>
0

>  <SCORE.INTRA.VDW.0>
0

>  <SCORE.INTRA.norm>
0

>  <SCORE.RESTR>
0

>  <SCORE.RESTR.CAVITY>
0

>  <SCORE.RESTR.norm>
0

>  <SCORE.SYSTEM>
0

>  <SCORE.SYSTEM.CONST>
0

>  <SCORE.SYSTEM.DIHEDRAL>
0

>  <SCORE.SYSTEM.SOLV>
0

>  <SCORE.SYSTEM.norm>
0

>  <SCORE.heavy>
12

>  <SCORE.norm>
-0.524431

>  <RMSD>
4.417

$$$$
ligand
 OpenBabel11021811503D
libRbt.so/2013.1/901 2013/11/27
 12 13  0  0  0  0  0  0  0  0999 V2000
    4.7865   15.5990    2.8148 C   0  0  0  0  0  0  0  0  0  0  0  0
    3.6626   14.2010    4.3039 C   0  0  0  0  0  0  0  0  0  0  0  0
    5.9027   15.9037    2.1590 N   0  0  0  0  0  0  0  0  0  0  0  0
    3.6156   13.1689    5.1533 N   0  0  0  0  0  0  0  0  0  0  0  0
    4.7836   14.5398    3.6534 N   0  0  0  0  0  0  0  0  0  0  0  0
    3.6701   16.3334    2.6124 N   0  0  0  0  0  0  0  0  0  0  0  0
    0.1738   15.3852    4.6104 N   0  0  0  0  0  0  0  0  0  0  0  0
    0.2133   16.4752    3.7273 C   0  0  0  0  0  0  0  0  0  0  0  0
    1.4155   16.7979    3.0557 N   0  0  0  0  0  0  0  0  0  0  0  0
    2.5133   16.0372    3.2559 C   0  0  0  0  0  0  0  0  0  0  0  0
    2.4873   14.9409    4.1239 C   0  0  0  0  0  0  0  0  0  0  0  0
    1.3249   14.5982    4.8121 C   0  0  0  0  0  0  0  0  0  0  0  0
  1  3  1  0  0  0  0
  1  5  1  0  0  0  0
  1  6  2  0  0  0  0
  2  5  2  0  0  0  0
  2 11  1  0  0  0  0
  2  4  1  0  0  0  0
  6 10  1  0  0  0  0
  7  8  2  0  0  0  0
  7 12  1  0  0  0  0
  8  9  1  0  0  0  0
  9 10  2  0  0  0  0
 10 11  1  0  0  0  0
 11 12  2  0  0  0  0
M  END
>  <CHROM.1>
2.90834321,15.33348650,3.67870288,0.07982337,0.27044861,-0.67052835

>  <Name>
ligand

>  <RI>
0

>  <Rbt.Current_Directory>
/home/itssahil/PROJECTS/Mol_Feturizer/New_Systems/rnas/4LX5

>  <Rbt.Executable>
rbdock ($Id: //depot/dev/client3/rdock/2013.1/src/exe/rbdock.cxx#4 $)

>  <Rbt.Library>
libRbt.so (2013.1, Build901 2013/11/27)

>  <Rbt.Parameter_File>
/export/apps/rDock/src/rDock_2013.1_src/data/scripts/dock_solv.prm

>  <Rbt.Receptor>
prm/blind_docking_100.prm

>  <SCORE>
-6.31448

>  <SCORE.INTER>
-6.31448

>  <SCORE.INTER.CONST>
1

>  <SCORE.INTER.POLAR>
0

>  <SCORE.INTER.ROT>
0

>  <SCORE.INTER.SOLV>
18.641

>  <SCORE.INTER.VDW>
-14.0233

>  <SCORE.INTER.norm>
-0.526207

>  <SCORE.INTRA>
0

>  <SCORE.INTRA.DIHEDRAL>
0

>  <SCORE.INTRA.DIHEDRAL.0>
0

>  <SCORE.INTRA.POLAR>
0

>  <SCORE.INTRA.POLAR.0>
0

>  <SCORE.INTRA.REPUL>
0

>  <SCORE.INTRA.REPUL.0>
0

>  <SCORE.INTRA.SOLV>
0

>  <SCORE.INTRA.SOLV.lig_0>
-48.1583

>  <SCORE.INTRA.VDW>
0

>  <SCORE.INTRA.VDW.0>
0

>  <SCORE.INTRA.norm>
0

>  <SCORE.RESTR>
0

>  <SCORE.RESTR.CAVITY>
0

>  <SCORE.RESTR.norm>
0

>  <SCORE.SYSTEM>
0

>  <SCORE.SYSTEM.CONST>
0

>  <SCORE.SYSTEM.DIHEDRAL>
0

>  <SCORE.SYSTEM.SOLV>
0

>  <SCORE.SYSTEM.norm>
0

>  <SCORE.heavy>
12

>  <SCORE.norm>
-0.526207

>  <RMSD>
4.423

$$$$
ligand
 OpenBabel11021811503D
libRbt.so/2013.1/901 2013/11/27
 12 13  0  0  0  0  0  0  0  0999 V2000
    4.7851   15.6055    2.8112 C   0  0  0  0  0  0  0  0  0  0  0  0
    3.6624   14.2032    4.2972 C   0  0  0  0  0  0  0  0  0  0  0  0
    5.9013   15.9130    2.1566 N   0  0  0  0  0  0  0  0  0  0  0  0
    3.6165   13.1696    5.1448 N   0  0  0  0  0  0  0  0  0  0  0  0
    4.7833   14.5448    3.6479 N   0  0  0  0  0  0  0  0  0  0  0  0
    3.6677   16.3386    2.6094 N   0  0  0  0  0  0  0  0  0  0  0  0
    0.1718   15.3817    4.6038 N   0  0  0  0  0  0  0  0  0  0  0  0
    0.2101   16.4733    3.7225 C   0  0  0  0  0  0  0  0  0  0  0  0
    1.4123   16.7990    3.0522 N   0  0  0  0  0  0  0  0  0  0  0  0
    2.5111   16.0395    3.2517 C   0  0  0  0  0  0  0  0  0  0  0  0
    2.4862   14.9416    4.1178 C   0  0  0  0  0  0  0  0  0  0  0  0
    1.3239   14.5961    4.8048 C   0  0  0  0  0  0  0  0  0  0  0  0
  1  3  1  0  0  0  0
  1  5  1  0  0  0  0
  1  6  2  0  0  0  0
  2  5  2  0  0  0  0
  2 11  1  0  0  0  0
  2  4  1  0  0  0  0
  6 10  1  0  0  0  0
  7  8  2  0  0  0  0
  7 12  1  0  0  0  0
  8  9  1  0  0  0  0
  9 10  2  0  0  0  0
 10 11  1  0  0  0  0
 11 12  2  0  0  0  0
M  END
>  <CHROM.1>
2.90687822,15.33565792,3.67353446,0.08065559,0.26907675,-0.66901566

>  <Name>
ligand

>  <RI>
0

>  <Rbt.Current_Directory>
/home/itssahil/PROJECTS/Mol_Feturizer/New_Systems/rnas/4LX5

>  <Rbt.Executable>
rbdock ($Id: //depot/dev/client3/rdock/2013.1/src/exe/rbdock.cxx#4 $)

>  <Rbt.Library>
libRbt.so (2013.1, Build901 2013/11/27)

>  <Rbt.Parameter_File>
/export/apps/rDock/src/rDock_2013.1_src/data/scripts/dock_solv.prm

>  <Rbt.Receptor>
prm/blind_docking_20.prm

>  <SCORE>
-6.3159

>  <SCORE.INTER>
-6.3159

>  <SCORE.INTER.CONST>
1

>  <SCORE.INTER.POLAR>
0

>  <SCORE.INTER.ROT>
0

>  <SCORE.INTER.SOLV>
18.5787

>  <SCORE.INTER.VDW>
-14.0035

>  <SCORE.INTER.norm>
-0.526325

>  <SCORE.INTRA>
0

>  <SCORE.INTRA.DIHEDRAL>
0

>  <SCORE.INTRA.DIHEDRAL.0>
0

>  <SCORE.INTRA.POLAR>
0

>  <SCORE.INTRA.POLAR.0>
0

>  <SCORE.INTRA.REPUL>
0

>  <SCORE.INTRA.REPUL.0>
0

>  <SCORE.INTRA.SOLV>
0

>  <SCORE.INTRA.SOLV.lig_0>
-48.1583

>  <SCORE.INTRA.VDW>
0

>  <SCORE.INTRA.VDW.0>
0

>  <SCORE.INTRA.norm>
0

>  <SCORE.RESTR>
0

>  <SCORE.RESTR.CAVITY>
0

>  <SCORE.RESTR.norm>
0

>  <SCORE.SYSTEM>
0

>  <SCORE.SYSTEM.CONST>
0

>  <SCORE.SYSTEM.DIHEDRAL>
0

>  <SCORE.SYSTEM.SOLV>
0

>  <SCORE.SYSTEM.norm>
0

>  <SCORE.heavy>
12

>  <SCORE.norm>
-0.526325

>  <RMSD>
4.423

$$$$
ligand
 OpenBabel11021811503D
libRbt.so/2013.1/901 2013/11/27
 12 13  0  0  0  0  0  0  0  0999 V2000
    4.7800   15.6134    2.8246 C   0  0  0  0  0  0  0  0  0  0  0  0
    3.6426   14.1972    4.2860 C   0  0  0  0  0  0  0  0  0  0  0  0
    5.9007   15.9233    2.1789 N   0  0  0  0  0  0  0  0  0  0  0  0
    3.5868   13.1519    5.1186 N   0  0  0  0  0  0  0  0  0  0  0  0
    4.7683   14.5410    3.6461 N   0  0  0  0  0  0  0  0  0  0  0  0
    3.6680   16.3563    2.6288 N   0  0  0  0  0  0  0  0  0  0  0  0
    0.1581   15.3930    4.5954 N   0  0  0  0  0  0  0  0  0  0  0  0
    0.2067   16.4967    3.7300 C   0  0  0  0  0  0  0  0  0  0  0  0
    1.4136   16.8244    3.0691 N   0  0  0  0  0  0  0  0  0  0  0  0
    2.5069   16.0554    3.2622 C   0  0  0  0  0  0  0  0  0  0  0  0
    2.4717   14.9454    4.1124 C   0  0  0  0  0  0  0  0  0  0  0  0
    1.3045   14.5974    4.7898 C   0  0  0  0  0  0  0  0  0  0  0  0
  1  3  1  0  0  0  0
  1  5  1  0  0  0  0
  1  6  2  0  0  0  0
  2  5  2  0  0  0  0
  2 11  1  0  0  0  0
  2  4  1  0  0  0  0
  6 10  1  0  0  0  0
  7  8  2  0  0  0  0
  7 12  1  0  0  0  0
  8  9  1  0  0  0  0
  9 10  2  0  0  0  0
 10 11  1  0  0  0  0
 11 12  2  0  0  0  0
M  END
>  <CHROM.1>
2.89662063,15.34309910,3.67551223,0.07300964,0.26970584,-0.65275472

>  <Name>
ligand

>  <RI>
0

>  <Rbt.Current_Directory>
/home/itssahil/PROJECTS/Mol_Feturizer/New_Systems/rnas/4LX5

>  <Rbt.Executable>
rbdock ($Id: //depot/dev/client3/rdock/2013.1/src/exe/rbdock.cxx#4 $)

>  <Rbt.Library>
libRbt.so (2013.1, Build901 2013/11/27)

>  <Rbt.Parameter_File>
/export/apps/rDock/src/rDock_2013.1_src/data/scripts/dock_solv.prm

>  <Rbt.Receptor>
prm/blind_docking_20.prm

>  <SCORE>
-6.29021

>  <SCORE.INTER>
-6.29021

>  <SCORE.INTER.CONST>
1

>  <SCORE.INTER.POLAR>
0

>  <SCORE.INTER.ROT>
0

>  <SCORE.INTER.SOLV>
18.2643

>  <SCORE.INTER.VDW>
-13.8816

>  <SCORE.INTER.norm>
-0.524185

>  <SCORE.INTRA>
0

>  <SCORE.INTRA.DIHEDRAL>
0

>  <SCORE.INTRA.DIHEDRAL.0>
0

>  <SCORE.INTRA.POLAR>
0

>  <SCORE.INTRA.POLAR.0>
0

>  <SCORE.INTRA.REPUL>
0

>  <SCORE.INTRA.REPUL.0>
0

>  <SCORE.INTRA.SOLV>
0

>  <SCORE.INTRA.SOLV.lig_0>
-48.1583

>  <SCORE.INTRA.VDW>
0

>  <SCORE.INTRA.VDW.0>
0

>  <SCORE.INTRA.norm>
0

>  <SCORE.RESTR>
0

>  <SCORE.RESTR.CAVITY>
0

>  <SCORE.RESTR.norm>
0

>  <SCORE.SYSTEM>
0

>  <SCORE.SYSTEM.CONST>
0

>  <SCORE.SYSTEM.DIHEDRAL>
0

>  <SCORE.SYSTEM.SOLV>
0

>  <SCORE.SYSTEM.norm>
0

>  <SCORE.heavy>
12

>  <SCORE.norm>
-0.524185

>  <RMSD>
4.424

$$$$
ligand
 OpenBabel11021811503D
libRbt.so/2013.1/901 2013/11/27
 12 13  0  0  0  0  0  0  0  0999 V2000
    4.7863   15.5939    2.8190 C   0  0  0  0  0  0  0  0  0  0  0  0
    3.6611   14.1998    4.3107 C   0  0  0  0  0  0  0  0  0  0  0  0
    5.9037   15.8981    2.1650 N   0  0  0  0  0  0  0  0  0  0  0  0
    3.6138   13.1710    5.1642 N   0  0  0  0  0  0  0  0  0  0  0  0
    4.7832   14.5381    3.6618 N   0  0  0  0  0  0  0  0  0  0  0  0
    3.6690   16.3254    2.6108 N   0  0  0  0  0  0  0  0  0  0  0  0
    0.1693   15.3787    4.6034 N   0  0  0  0  0  0  0  0  0  0  0  0
    0.2090   16.4652    3.7160 C   0  0  0  0  0  0  0  0  0  0  0  0
    1.4124   16.7875    3.0462 N   0  0  0  0  0  0  0  0  0  0  0  0
    2.5111   16.0296    3.2524 C   0  0  0  0  0  0  0  0  0  0  0  0
    2.4849   14.9367    4.1247 C   0  0  0  0  0  0  0  0  0  0  0  0
    1.3214   14.5946    4.8113 C   0  0  0  0  0  0  0  0  0  0  0  0
  1  3  1  0  0  0  0
  1  5  1  0  0  0  0
  1  6  2  0  0  0  0
  2  5  2  0  0  0  0
  2 11  1  0  0  0  0
  2  4  1  0  0  0  0
  6 10  1  0  0  0  0
  7  8  2  0  0  0  0
  7 12  1  0  0  0  0
  8  9  1  0  0  0  0
  9 10  2  0  0  0  0
 10 11  1  0  0  0  0
 11 12  2  0  0  0  0
M  END
>  <CHROM.1>
2.90636923,15.32834146,3.67906043,0.07965251,0.26722233,-0.67449485

>  <Name>
ligand

>  <RI>
0

>  <Rbt.Current_Directory>
/home/itssahil/PROJECTS/Mol_Feturizer/New_Systems/rnas/4LX5

>  <Rbt.Executable>
rbdock ($Id: //depot/dev/client3/rdock/2013.1/src/exe/rbdock.cxx#4 $)

>  <Rbt.Library>
libRbt.so (2013.1, Build901 2013/11/27)

>  <Rbt.Parameter_File>
/export/apps/rDock/src/rDock_2013.1_src/data/scripts/dock_solv.prm

>  <Rbt.Receptor>
prm/blind_docking_20.prm

>  <SCORE>
-6.31692

>  <SCORE.INTER>
-6.31692

>  <SCORE.INTER.CONST>
1

>  <SCORE.INTER.POLAR>
0

>  <SCORE.INTER.ROT>
0

>  <SCORE.INTER.SOLV>
18.6891

>  <SCORE.INTER.VDW>
-14.041

>  <SCORE.INTER.norm>
-0.52641

>  <SCORE.INTRA>
0

>  <SCORE.INTRA.DIHEDRAL>
0

>  <SCORE.INTRA.DIHEDRAL.0>
0

>  <SCORE.INTRA.POLAR>
0

>  <SCORE.INTRA.POLAR.0>
0

>  <SCORE.INTRA.REPUL>
0

>  <SCORE.INTRA.REPUL.0>
0

>  <SCORE.INTRA.SOLV>
0

>  <SCORE.INTRA.SOLV.lig_0>
-48.1583

>  <SCORE.INTRA.VDW>
0

>  <SCORE.INTRA.VDW.0>
0

>  <SCORE.INTRA.norm>
0

>  <SCORE.RESTR>
0

>  <SCORE.RESTR.CAVITY>
0

>  <SCORE.RESTR.norm>
0

>  <SCORE.SYSTEM>
0

>  <SCORE.SYSTEM.CONST>
0

>  <SCORE.SYSTEM.DIHEDRAL>
0

>  <SCORE.SYSTEM.SOLV>
0

>  <SCORE.SYSTEM.norm>
0

>  <SCORE.heavy>
12

>  <SCORE.norm>
-0.52641

>  <RMSD>
4.429

$$$$
ligand
 OpenBabel11021811503D
libRbt.so/2013.1/901 2013/11/27
 12 13  0  0  0  0  0  0  0  0999 V2000
    4.7740   15.5962    2.8145 C   0  0  0  0  0  0  0  0  0  0  0  0
    3.6561   14.2012    4.3109 C   0  0  0  0  0  0  0  0  0  0  0  0
    5.8886   15.9017    2.1563 N   0  0  0  0  0  0  0  0  0  0  0  0
    3.6134   13.1728    5.1650 N   0  0  0  0  0  0  0  0  0  0  0  0
    4.7755   14.5408    3.6578 N   0  0  0  0  0  0  0  0  0  0  0  0
    3.6550   16.3261    2.6099 N   0  0  0  0  0  0  0  0  0  0  0  0
    0.1638   15.3753    4.6155 N   0  0  0  0  0  0  0  0  0  0  0  0
    0.1988   16.4615    3.7275 C   0  0  0  0  0  0  0  0  0  0  0  0
    1.3994   16.7851    3.0532 N   0  0  0  0  0  0  0  0  0  0  0  0
    2.4998   16.0289    3.2558 C   0  0  0  0  0  0  0  0  0  0  0  0
    2.4783   14.9364    4.1287 C   0  0  0  0  0  0  0  0  0  0  0  0
    1.3177   14.5930    4.8196 C   0  0  0  0  0  0  0  0  0  0  0  0
  1  3  1  0  0  0  0
  1  5  1  0  0  0  0
  1  6  2  0  0  0  0
  2  5  2  0  0  0  0
  2 11  1  0  0  0  0
  2  4  1  0  0  0  0
  6 10  1  0  0  0  0
  7  8  2  0  0  0  0
  7 12  1  0  0  0  0
  8  9  1  0  0  0  0
  9 10  2  0  0  0  0
 10 11  1  0  0  0  0
 11 12  2  0  0  0  0
M  END
>  <CHROM.1>
2.89760029,15.32841082,3.68138808,0.08311966,0.26914710,-0.67588103

>  <Name>
ligand

>  <RI>
0

>  <Rbt.Current_Directory>
/home/itssahil/PROJECTS/Mol_Feturizer/New_Systems/rnas/4LX5

>  <Rbt.Executable>
rbdock ($Id: //depot/dev/client3/rdock/2013.1/src/exe/rbdock.cxx#4 $)

>  <Rbt.Library>
libRbt.so (2013.1, Build901 2013/11/27)

>  <Rbt.Parameter_File>
/export/apps/rDock/src/rDock_2013.1_src/data/scripts/dock_solv.prm

>  <Rbt.Receptor>
prm/blind_docking_20.prm

>  <SCORE>
-6.31256

>  <SCORE.INTER>
-6.31256

>  <SCORE.INTER.CONST>
1

>  <SCORE.INTER.POLAR>
0

>  <SCORE.INTER.ROT>
0

>  <SCORE.INTER.SOLV>
18.6591

>  <SCORE.INTER.VDW>
-14.0281

>  <SCORE.INTER.norm>
-0.526047

>  <SCORE.INTRA>
0

>  <SCORE.INTRA.DIHEDRAL>
0

>  <SCORE.INTRA.DIHEDRAL.0>
0

>  <SCORE.INTRA.POLAR>
0

>  <SCORE.INTRA.POLAR.0>
0

>  <SCORE.INTRA.REPUL>
0

>  <SCORE.INTRA.REPUL.0>
0

>  <SCORE.INTRA.SOLV>
0

>  <SCORE.INTRA.SOLV.lig_0>
-48.1583

>  <SCORE.INTRA.VDW>
0

>  <SCORE.INTRA.VDW.0>
0

>  <SCORE.INTRA.norm>
0

>  <SCORE.RESTR>
0

>  <SCORE.RESTR.CAVITY>
0

>  <SCORE.RESTR.norm>
0

>  <SCORE.SYSTEM>
0

>  <SCORE.SYSTEM.CONST>
0

>  <SCORE.SYSTEM.DIHEDRAL>
0

>  <SCORE.SYSTEM.SOLV>
0

>  <SCORE.SYSTEM.norm>
0

>  <SCORE.heavy>
12

>  <SCORE.norm>
-0.526047

>  <RMSD>
4.434

$$$$
ligand
 OpenBabel11021811503D
libRbt.so/2013.1/901 2013/11/27
 12 13  0  0  0  0  0  0  0  0999 V2000
    4.7194   15.6396    2.8198 C   0  0  0  0  0  0  0  0  0  0  0  0
    3.6607   14.2150    4.3312 C   0  0  0  0  0  0  0  0  0  0  0  0
    5.8157   15.9744    2.1454 N   0  0  0  0  0  0  0  0  0  0  0  0
    3.6575   13.1852    5.1848 N   0  0  0  0  0  0  0  0  0  0  0  0
    4.7609   14.5840    3.6619 N   0  0  0  0  0  0  0  0  0  0  0  0
    3.5789   16.3401    2.6326 N   0  0  0  0  0  0  0  0  0  0  0  0
    0.1439   15.2974    4.6890 N   0  0  0  0  0  0  0  0  0  0  0  0
    0.1374   16.3846    3.8017 C   0  0  0  0  0  0  0  0  0  0  0  0
    1.3189   16.7399    3.1100 N   0  0  0  0  0  0  0  0  0  0  0  0
    2.4416   16.0125    3.2953 C   0  0  0  0  0  0  0  0  0  0  0  0
    2.4615   14.9193    4.1674 C   0  0  0  0  0  0  0  0  0  0  0  0
    1.3207   14.5453    4.8751 C   0  0  0  0  0  0  0  0  0  0  0  0
  1  3  1  0  0  0  0
  1  5  1  0  0  0  0
  1  6  2  0  0  0  0
  2  5  2  0  0  0  0
  2 11  1  0  0  0  0
  2  4  1  0  0  0  0
  6 10  1  0  0  0  0
  7  8  2  0  0  0  0
  7 12  1  0  0  0  0
  8  9  1  0  0  0  0
  9 10  2  0  0  0  0
 10 11  1  0  0  0  0
 11 12  2  0  0  0  0
M  END
>  <CHROM.1>
2.86375069,15.32236118,3.71424594,0.11384644,0.26435369,-0.68316241

>  <Name>
ligand

>  <RI>
0

>  <Rbt.Current_Directory>
/home/itssahil/PROJECTS/Mol_Feturizer/New_Systems/rnas/4LX5

>  <Rbt.Executable>
rbdock ($Id: //depot/dev/client3/rdock/2013.1/src/exe/rbdock.cxx#4 $)

>  <Rbt.Library>
libRbt.so (2013.1, Build901 2013/11/27)

>  <Rbt.Parameter_File>
/export/apps/rDock/src/rDock_2013.1_src/data/scripts/dock_solv.prm

>  <Rbt.Receptor>
prm/blind_docking_100.prm

>  <SCORE>
-6.33777

>  <SCORE.INTER>
-6.33777

>  <SCORE.INTER.CONST>
1

>  <SCORE.INTER.POLAR>
0

>  <SCORE.INTER.ROT>
0

>  <SCORE.INTER.SOLV>
18.4427

>  <SCORE.INTER.VDW>
-13.9728

>  <SCORE.INTER.norm>
-0.528148

>  <SCORE.INTRA>
0

>  <SCORE.INTRA.DIHEDRAL>
0

>  <SCORE.INTRA.DIHEDRAL.0>
0

>  <SCORE.INTRA.POLAR>
0

>  <SCORE.INTRA.POLAR.0>
0

>  <SCORE.INTRA.REPUL>
0

>  <SCORE.INTRA.REPUL.0>
0

>  <SCORE.INTRA.SOLV>
0

>  <SCORE.INTRA.SOLV.lig_0>
-48.1583

>  <SCORE.INTRA.VDW>
0

>  <SCORE.INTRA.VDW.0>
0

>  <SCORE.INTRA.norm>
0

>  <SCORE.RESTR>
0

>  <SCORE.RESTR.CAVITY>
0

>  <SCORE.RESTR.norm>
0

>  <SCORE.SYSTEM>
0

>  <SCORE.SYSTEM.CONST>
0

>  <SCORE.SYSTEM.DIHEDRAL>
0

>  <SCORE.SYSTEM.SOLV>
0

>  <SCORE.SYSTEM.norm>
0

>  <SCORE.heavy>
12

>  <SCORE.norm>
-0.528148

>  <RMSD>
4.465

$$$$
ligand
 OpenBabel11021811503D
libRbt.so/2013.1/901 2013/11/27
 12 13  0  0  0  0  0  0  0  0999 V2000
    2.6521   17.8427    0.9123 C   0  0  0  0  0  0  0  0  0  0  0  0
    3.8457   16.4163    2.3178 C   0  0  0  0  0  0  0  0  0  0  0  0
    2.6286   18.6293   -0.1600 N   0  0  0  0  0  0  0  0  0  0  0  0
    4.9688   15.8009    2.7035 N   0  0  0  0  0  0  0  0  0  0  0  0
    3.8073   17.2324    1.2561 N   0  0  0  0  0  0  0  0  0  0  0  0
    1.5190   17.6454    1.6220 N   0  0  0  0  0  0  0  0  0  0  0  0
    1.5544   15.1744    4.9399 N   0  0  0  0  0  0  0  0  0  0  0  0
    0.3717   15.8210    4.5491 C   0  0  0  0  0  0  0  0  0  0  0  0
    0.3710   16.6716    3.4190 N   0  0  0  0  0  0  0  0  0  0  0  0
    1.5093   16.8371    2.7113 C   0  0  0  0  0  0  0  0  0  0  0  0
    2.6933   16.1909    3.0808 C   0  0  0  0  0  0  0  0  0  0  0  0
    2.7364   15.3541    4.1945 C   0  0  0  0  0  0  0  0  0  0  0  0
  1  3  1  0  0  0  0
  1  5  1  0  0  0  0
  1  6  2  0  0  0  0
  2  5  2  0  0  0  0
  2 11  1  0  0  0  0
  2  4  1  0  0  0  0
  6 10  1  0  0  0  0
  7  8  2  0  0  0  0
  7 12  1  0  0  0  0
  8  9  1  0  0  0  0
  9 10  2  0  0  0  0
 10 11  1  0  0  0  0
 11 12  2  0  0  0  0
M  END
>  <CHROM.1>
2.39477196,16.65188002,2.60338762,1.15873046,0.23975861,-0.93108596

>  <Name>
ligand

>  <RI>
0

>  <Rbt.Current_Directory>
/home/itssahil/PROJECTS/Mol_Feturizer/New_Systems/rnas/4LX5

>  <Rbt.Executable>
rbdock ($Id: //depot/dev/client3/rdock/2013.1/src/exe/rbdock.cxx#4 $)

>  <Rbt.Library>
libRbt.so (2013.1, Build901 2013/11/27)

>  <Rbt.Parameter_File>
/export/apps/rDock/src/rDock_2013.1_src/data/scripts/dock_solv.prm

>  <Rbt.Receptor>
prm/blind_docking_100.prm

>  <SCORE>
-6.26842

>  <SCORE.INTER>
-6.26842

>  <SCORE.INTER.CONST>
1

>  <SCORE.INTER.POLAR>
0

>  <SCORE.INTER.ROT>
0

>  <SCORE.INTER.SOLV>
18.789

>  <SCORE.INTER.VDW>
-14.042

>  <SCORE.INTER.norm>
-0.522369

>  <SCORE.INTRA>
0

>  <SCORE.INTRA.DIHEDRAL>
0

>  <SCORE.INTRA.DIHEDRAL.0>
0

>  <SCORE.INTRA.POLAR>
0

>  <SCORE.INTRA.POLAR.0>
0

>  <SCORE.INTRA.REPUL>
0

>  <SCORE.INTRA.REPUL.0>
0

>  <SCORE.INTRA.SOLV>
0

>  <SCORE.INTRA.SOLV.lig_0>
-48.1583

>  <SCORE.INTRA.VDW>
0

>  <SCORE.INTRA.VDW.0>
0

>  <SCORE.INTRA.norm>
0

>  <SCORE.RESTR>
0

>  <SCORE.RESTR.CAVITY>
0

>  <SCORE.RESTR.norm>
0

>  <SCORE.SYSTEM>
0

>  <SCORE.SYSTEM.CONST>
0

>  <SCORE.SYSTEM.DIHEDRAL>
0

>  <SCORE.SYSTEM.SOLV>
0

>  <SCORE.SYSTEM.norm>
0

>  <SCORE.heavy>
12

>  <SCORE.norm>
-0.522369

>  <RMSD>
4.503

$$$$
ligand
 OpenBabel11021811503D
libRbt.so/2013.1/901 2013/11/27
 12 13  0  0  0  0  0  0  0  0999 V2000
    2.0693   17.5665    2.0116 C   0  0  0  0  0  0  0  0  0  0  0  0
    3.8524   16.3398    2.8781 C   0  0  0  0  0  0  0  0  0  0  0  0
    1.6372   18.5546    1.2333 N   0  0  0  0  0  0  0  0  0  0  0  0
    5.1585   16.0915    3.0249 N   0  0  0  0  0  0  0  0  0  0  0  0
    3.3979   17.3459    2.1193 N   0  0  0  0  0  0  0  0  0  0  0  0
    1.1763   16.7848    2.6582 N   0  0  0  0  0  0  0  0  0  0  0  0
    2.4912   13.6808    5.0563 N   0  0  0  0  0  0  0  0  0  0  0  0
    1.1185   13.9367    4.9159 C   0  0  0  0  0  0  0  0  0  0  0  0
    0.6782   15.0060    4.1015 N   0  0  0  0  0  0  0  0  0  0  0  0
    1.5871   15.7607    3.4470 C   0  0  0  0  0  0  0  0  0  0  0  0
    2.9581   15.5115    3.5673 C   0  0  0  0  0  0  0  0  0  0  0  0
    3.4310   14.4743    4.3690 C   0  0  0  0  0  0  0  0  0  0  0  0
  1  3  1  0  0  0  0
  1  5  1  0  0  0  0
  1  6  2  0  0  0  0
  2  5  2  0  0  0  0
  2 11  1  0  0  0  0
  2  4  1  0  0  0  0
  6 10  1  0  0  0  0
  7  8  2  0  0  0  0
  7 12  1  0  0  0  0
  8  9  1  0  0  0  0
  9 10  2  0  0  0  0
 10 11  1  0  0  0  0
 11 12  2  0  0  0  0
M  END
>  <CHROM.1>
2.45991958,15.94586941,3.26271181,1.47396183,0.03792854,-0.66879680

>  <Name>
ligand

>  <RI>
0

>  <Rbt.Current_Directory>
/home/itssahil/PROJECTS/Mol_Feturizer/New_Systems/rnas/4LX5

>  <Rbt.Executable>
rbdock ($Id: //depot/dev/client3/rdock/2013.1/src/exe/rbdock.cxx#4 $)

>  <Rbt.Library>
libRbt.so (2013.1, Build901 2013/11/27)

>  <Rbt.Parameter_File>
/export/apps/rDock/src/rDock_2013.1_src/data/scripts/dock_solv.prm

>  <Rbt.Receptor>
prm/pocket_docking_8.prm

>  <SCORE>
-6.41686

>  <SCORE.INTER>
-6.41686

>  <SCORE.INTER.CONST>
1

>  <SCORE.INTER.POLAR>
0

>  <SCORE.INTER.ROT>
0

>  <SCORE.INTER.SOLV>
16.5568

>  <SCORE.INTER.VDW>
-13.3968

>  <SCORE.INTER.norm>
-0.534738

>  <SCORE.INTRA>
0

>  <SCORE.INTRA.DIHEDRAL>
0

>  <SCORE.INTRA.DIHEDRAL.0>
0

>  <SCORE.INTRA.POLAR>
0

>  <SCORE.INTRA.POLAR.0>
0

>  <SCORE.INTRA.REPUL>
0

>  <SCORE.INTRA.REPUL.0>
0

>  <SCORE.INTRA.SOLV>
0

>  <SCORE.INTRA.SOLV.lig_0>
-48.1583

>  <SCORE.INTRA.VDW>
0

>  <SCORE.INTRA.VDW.0>
0

>  <SCORE.INTRA.norm>
0

>  <SCORE.RESTR>
0

>  <SCORE.RESTR.CAVITY>
0

>  <SCORE.RESTR.norm>
0

>  <SCORE.SYSTEM>
0

>  <SCORE.SYSTEM.CONST>
0

>  <SCORE.SYSTEM.DIHEDRAL>
0

>  <SCORE.SYSTEM.SOLV>
0

>  <SCORE.SYSTEM.norm>
0

>  <SCORE.heavy>
12

>  <SCORE.norm>
-0.534738

>  <RMSD>
4.862

$$$$
ligand
 OpenBabel11021811503D
libRbt.so/2013.1/901 2013/11/27
 12 13  0  0  0  0  0  0  0  0999 V2000
    2.5837   13.1582    4.4282 C   0  0  0  0  0  0  0  0  0  0  0  0
    1.9072   15.2328    3.6077 C   0  0  0  0  0  0  0  0  0  0  0  0
    2.2655   11.9980    4.9952 N   0  0  0  0  0  0  0  0  0  0  0  0
    0.9810   16.1690    3.3739 N   0  0  0  0  0  0  0  0  0  0  0  0
    1.6117   14.0685    4.2008 N   0  0  0  0  0  0  0  0  0  0  0  0
    3.8635   13.3965    4.0651 N   0  0  0  0  0  0  0  0  0  0  0  0
    4.8750   16.9817    2.2655 N   0  0  0  0  0  0  0  0  0  0  0  0
    5.8568   16.0098    2.5127 C   0  0  0  0  0  0  0  0  0  0  0  0
    5.5037   14.7908    3.1371 N   0  0  0  0  0  0  0  0  0  0  0  0
    4.2149   14.5645    3.4716 C   0  0  0  0  0  0  0  0  0  0  0  0
    3.2227   15.5180    3.2216 C   0  0  0  0  0  0  0  0  0  0  0  0
    3.5334   16.7354    2.6185 C   0  0  0  0  0  0  0  0  0  0  0  0
  1  3  1  0  0  0  0
  1  5  1  0  0  0  0
  1  6  2  0  0  0  0
  2  5  2  0  0  0  0
  2 11  1  0  0  0  0
  2  4  1  0  0  0  0
  6 10  1  0  0  0  0
  7  8  2  0  0  0  0
  7 12  1  0  0  0  0
  8  9  1  0  0  0  0
  9 10  2  0  0  0  0
 10 11  1  0  0  0  0
 11 12  2  0  0  0  0
M  END
>  <CHROM.1>
3.35408658,14.86087296,3.50540408,-2.24173362,0.17155615,-0.42321773

>  <Name>
ligand

>  <RI>
0

>  <Rbt.Current_Directory>
/home/itssahil/PROJECTS/Mol_Feturizer/New_Systems/rnas/4LX5

>  <Rbt.Executable>
rbdock ($Id: //depot/dev/client3/rdock/2013.1/src/exe/rbdock.cxx#4 $)

>  <Rbt.Library>
libRbt.so (2013.1, Build901 2013/11/27)

>  <Rbt.Parameter_File>
/export/apps/rDock/src/rDock_2013.1_src/data/scripts/dock_solv.prm

>  <Rbt.Receptor>
prm/blind_docking_20.prm

>  <SCORE>
-6.84282

>  <SCORE.INTER>
-6.84282

>  <SCORE.INTER.CONST>
1

>  <SCORE.INTER.POLAR>
0

>  <SCORE.INTER.ROT>
0

>  <SCORE.INTER.SOLV>
11.7643

>  <SCORE.INTER.VDW>
-12.0833

>  <SCORE.INTER.norm>
-0.570235

>  <SCORE.INTRA>
0

>  <SCORE.INTRA.DIHEDRAL>
0

>  <SCORE.INTRA.DIHEDRAL.0>
0

>  <SCORE.INTRA.POLAR>
0

>  <SCORE.INTRA.POLAR.0>
0

>  <SCORE.INTRA.REPUL>
0

>  <SCORE.INTRA.REPUL.0>
0

>  <SCORE.INTRA.SOLV>
0

>  <SCORE.INTRA.SOLV.lig_0>
-48.1583

>  <SCORE.INTRA.VDW>
0

>  <SCORE.INTRA.VDW.0>
0

>  <SCORE.INTRA.norm>
0

>  <SCORE.RESTR>
0

>  <SCORE.RESTR.CAVITY>
0

>  <SCORE.RESTR.norm>
0

>  <SCORE.SYSTEM>
0

>  <SCORE.SYSTEM.CONST>
0

>  <SCORE.SYSTEM.DIHEDRAL>
0

>  <SCORE.SYSTEM.SOLV>
0

>  <SCORE.SYSTEM.norm>
0

>  <SCORE.heavy>
12

>  <SCORE.norm>
-0.570235

>  <RMSD>
5.132

$$$$
ligand
 OpenBabel11021811503D
libRbt.so/2013.1/901 2013/11/27
 12 13  0  0  0  0  0  0  0  0999 V2000
    2.6060   13.1284    4.4427 C   0  0  0  0  0  0  0  0  0  0  0  0
    1.9101   15.2058    3.6460 C   0  0  0  0  0  0  0  0  0  0  0  0
    2.2999   11.9619    5.0035 N   0  0  0  0  0  0  0  0  0  0  0  0
    0.9765   16.1388    3.4293 N   0  0  0  0  0  0  0  0  0  0  0  0
    1.6269   14.0352    4.2326 N   0  0  0  0  0  0  0  0  0  0  0  0
    3.8808   13.3766    4.0685 N   0  0  0  0  0  0  0  0  0  0  0  0
    4.8545   16.9816    2.2878 N   0  0  0  0  0  0  0  0  0  0  0  0
    5.8440   16.0132    2.5171 C   0  0  0  0  0  0  0  0  0  0  0  0
    5.5038   14.7872    3.1351 N   0  0  0  0  0  0  0  0  0  0  0  0
    4.2198   14.5512    3.4809 C   0  0  0  0  0  0  0  0  0  0  0  0
    3.2200   15.5013    3.2488 C   0  0  0  0  0  0  0  0  0  0  0  0
    3.5180   16.7252    2.6525 C   0  0  0  0  0  0  0  0  0  0  0  0
  1  3  1  0  0  0  0
  1  5  1  0  0  0  0
  1  6  2  0  0  0  0
  2  5  2  0  0  0  0
  2 11  1  0  0  0  0
  2  4  1  0  0  0  0
  6 10  1  0  0  0  0
  7  8  2  0  0  0  0
  7 12  1  0  0  0  0
  8  9  1  0  0  0  0
  9 10  2  0  0  0  0
 10 11  1  0  0  0  0
 11 12  2  0  0  0  0
M  END
>  <CHROM.1>
3.35778338,14.84262097,3.52593252,-2.23248981,0.17869216,-0.41673586

>  <Name>
ligand

>  <RI>
0

>  <Rbt.Current_Directory>
/home/itssahil/PROJECTS/Mol_Feturizer/New_Systems/rnas/4LX5

>  <Rbt.Executable>
rbdock ($Id: //depot/dev/client3/rdock/2013.1/src/exe/rbdock.cxx#4 $)

>  <Rbt.Library>
libRbt.so (2013.1, Build901 2013/11/27)

>  <Rbt.Parameter_File>
/export/apps/rDock/src/rDock_2013.1_src/data/scripts/dock_solv.prm

>  <Rbt.Receptor>
prm/blind_docking_20.prm

>  <SCORE>
-6.73817

>  <SCORE.INTER>
-6.73817

>  <SCORE.INTER.CONST>
1

>  <SCORE.INTER.POLAR>
0

>  <SCORE.INTER.ROT>
0

>  <SCORE.INTER.SOLV>
11.703

>  <SCORE.INTER.VDW>
-11.9931

>  <SCORE.INTER.norm>
-0.561514

>  <SCORE.INTRA>
0

>  <SCORE.INTRA.DIHEDRAL>
0

>  <SCORE.INTRA.DIHEDRAL.0>
0

>  <SCORE.INTRA.POLAR>
0

>  <SCORE.INTRA.POLAR.0>
0

>  <SCORE.INTRA.REPUL>
0

>  <SCORE.INTRA.REPUL.0>
0

>  <SCORE.INTRA.SOLV>
0

>  <SCORE.INTRA.SOLV.lig_0>
-48.1583

>  <SCORE.INTRA.VDW>
0

>  <SCORE.INTRA.VDW.0>
0

>  <SCORE.INTRA.norm>
0

>  <SCORE.RESTR>
0

>  <SCORE.RESTR.CAVITY>
0

>  <SCORE.RESTR.norm>
0

>  <SCORE.SYSTEM>
0

>  <SCORE.SYSTEM.CONST>
0

>  <SCORE.SYSTEM.DIHEDRAL>
0

>  <SCORE.SYSTEM.SOLV>
0

>  <SCORE.SYSTEM.norm>
0

>  <SCORE.heavy>
12

>  <SCORE.norm>
-0.561514

>  <RMSD>
5.136

$$$$
ligand
 OpenBabel11021811503D
libRbt.so/2013.1/901 2013/11/27
 12 13  0  0  0  0  0  0  0  0999 V2000
    2.5055   13.1476    4.3934 C   0  0  0  0  0  0  0  0  0  0  0  0
    1.8884   15.2499    3.5969 C   0  0  0  0  0  0  0  0  0  0  0  0
    2.1530   11.9867    4.9383 N   0  0  0  0  0  0  0  0  0  0  0  0
    0.9875   16.2112    3.3664 N   0  0  0  0  0  0  0  0  0  0  0  0
    1.5581   14.0840    4.1681 N   0  0  0  0  0  0  0  0  0  0  0  0
    3.7951   13.3611    4.0499 N   0  0  0  0  0  0  0  0  0  0  0  0
    4.9133   16.9484    2.3190 N   0  0  0  0  0  0  0  0  0  0  0  0
    5.8688   15.9499    2.5631 C   0  0  0  0  0  0  0  0  0  0  0  0
    5.4792   14.7302    3.1640 N   0  0  0  0  0  0  0  0  0  0  0  0
    4.1814   14.5294    3.4790 C   0  0  0  0  0  0  0  0  0  0  0  0
    3.2151   15.5098    3.2317 C   0  0  0  0  0  0  0  0  0  0  0  0
    3.5619   16.7285    2.6515 C   0  0  0  0  0  0  0  0  0  0  0  0
  1  3  1  0  0  0  0
  1  5  1  0  0  0  0
  1  6  2  0  0  0  0
  2  5  2  0  0  0  0
  2 11  1  0  0  0  0
  2  4  1  0  0  0  0
  6 10  1  0  0  0  0
  7  8  2  0  0  0  0
  7 12  1  0  0  0  0
  8  9  1  0  0  0  0
  9 10  2  0  0  0  0
 10 11  1  0  0  0  0
 11 12  2  0  0  0  0
M  END
>  <CHROM.1>
3.32733461,14.84547306,3.50680513,-2.26875289,0.16952134,-0.40320433

>  <Name>
ligand

>  <RI>
0

>  <Rbt.Current_Directory>
/home/itssahil/PROJECTS/Mol_Feturizer/New_Systems/rnas/4LX5

>  <Rbt.Executable>
rbdock ($Id: //depot/dev/client3/rdock/2013.1/src/exe/rbdock.cxx#4 $)

>  <Rbt.Library>
libRbt.so (2013.1, Build901 2013/11/27)

>  <Rbt.Parameter_File>
/export/apps/rDock/src/rDock_2013.1_src/data/scripts/dock_solv.prm

>  <Rbt.Receptor>
prm/blind_docking_20.prm

>  <SCORE>
-6.81632

>  <SCORE.INTER>
-6.81632

>  <SCORE.INTER.CONST>
1

>  <SCORE.INTER.POLAR>
0

>  <SCORE.INTER.ROT>
0

>  <SCORE.INTER.SOLV>
11.627

>  <SCORE.INTER.VDW>
-12.0199

>  <SCORE.INTER.norm>
-0.568026

>  <SCORE.INTRA>
0

>  <SCORE.INTRA.DIHEDRAL>
0

>  <SCORE.INTRA.DIHEDRAL.0>
0

>  <SCORE.INTRA.POLAR>
0

>  <SCORE.INTRA.POLAR.0>
0

>  <SCORE.INTRA.REPUL>
0

>  <SCORE.INTRA.REPUL.0>
0

>  <SCORE.INTRA.SOLV>
0

>  <SCORE.INTRA.SOLV.lig_0>
-48.1583

>  <SCORE.INTRA.VDW>
0

>  <SCORE.INTRA.VDW.0>
0

>  <SCORE.INTRA.norm>
0

>  <SCORE.RESTR>
0

>  <SCORE.RESTR.CAVITY>
0

>  <SCORE.RESTR.norm>
0

>  <SCORE.SYSTEM>
0

>  <SCORE.SYSTEM.CONST>
0

>  <SCORE.SYSTEM.DIHEDRAL>
0

>  <SCORE.SYSTEM.SOLV>
0

>  <SCORE.SYSTEM.norm>
0

>  <SCORE.heavy>
12

>  <SCORE.norm>
-0.568026

>  <RMSD>
5.153

$$$$
ligand
 OpenBabel11021811503D
libRbt.so/2013.1/901 2013/11/27
 12 13  0  0  0  0  0  0  0  0999 V2000
    2.5955   13.1348    4.4812 C   0  0  0  0  0  0  0  0  0  0  0  0
    1.8882   15.2192    3.7131 C   0  0  0  0  0  0  0  0  0  0  0  0
    2.2994   11.9680    5.0468 N   0  0  0  0  0  0  0  0  0  0  0  0
    0.9541   16.1583    3.5278 N   0  0  0  0  0  0  0  0  0  0  0  0
    1.6158   14.0480    4.3038 N   0  0  0  0  0  0  0  0  0  0  0  0
    3.8599   13.3770    4.0698 N   0  0  0  0  0  0  0  0  0  0  0  0
    4.8011   16.9829    2.2735 N   0  0  0  0  0  0  0  0  0  0  0  0
    5.7913   16.0079    2.4695 C   0  0  0  0  0  0  0  0  0  0  0  0
    5.4625   14.7816    3.0931 N   0  0  0  0  0  0  0  0  0  0  0  0
    4.1881   14.5518    3.4765 C   0  0  0  0  0  0  0  0  0  0  0  0
    3.1874   15.5085    3.2779 C   0  0  0  0  0  0  0  0  0  0  0  0
    3.4746   16.7328    2.6773 C   0  0  0  0  0  0  0  0  0  0  0  0
  1  3  1  0  0  0  0
  1  5  1  0  0  0  0
  1  6  2  0  0  0  0
  2  5  2  0  0  0  0
  2 11  1  0  0  0  0
  2  4  1  0  0  0  0
  6 10  1  0  0  0  0
  7  8  2  0  0  0  0
  7 12  1  0  0  0  0
  8  9  1  0  0  0  0
  9 10  2  0  0  0  0
 10 11  1  0  0  0  0
 11 12  2  0  0  0  0
M  END
>  <CHROM.1>
3.32952051,14.84801768,3.54837174,-2.22560645,0.20850380,-0.41442010

>  <Name>
ligand

>  <RI>
0

>  <Rbt.Current_Directory>
/home/itssahil/PROJECTS/Mol_Feturizer/New_Systems/rnas/4LX5

>  <Rbt.Executable>
rbdock ($Id: //depot/dev/client3/rdock/2013.1/src/exe/rbdock.cxx#4 $)

>  <Rbt.Library>
libRbt.so (2013.1, Build901 2013/11/27)

>  <Rbt.Parameter_File>
/export/apps/rDock/src/rDock_2013.1_src/data/scripts/dock_solv.prm

>  <Rbt.Receptor>
prm/blind_docking_20.prm

>  <SCORE>
-6.76258

>  <SCORE.INTER>
-6.76258

>  <SCORE.INTER.CONST>
1

>  <SCORE.INTER.POLAR>
0

>  <SCORE.INTER.ROT>
0

>  <SCORE.INTER.SOLV>
11.9552

>  <SCORE.INTER.VDW>
-12.0935

>  <SCORE.INTER.norm>
-0.563548

>  <SCORE.INTRA>
0

>  <SCORE.INTRA.DIHEDRAL>
0

>  <SCORE.INTRA.DIHEDRAL.0>
0

>  <SCORE.INTRA.POLAR>
0

>  <SCORE.INTRA.POLAR.0>
0

>  <SCORE.INTRA.REPUL>
0

>  <SCORE.INTRA.REPUL.0>
0

>  <SCORE.INTRA.SOLV>
0

>  <SCORE.INTRA.SOLV.lig_0>
-48.1583

>  <SCORE.INTRA.VDW>
0

>  <SCORE.INTRA.VDW.0>
0

>  <SCORE.INTRA.norm>
0

>  <SCORE.RESTR>
0

>  <SCORE.RESTR.CAVITY>
0

>  <SCORE.RESTR.norm>
0

>  <SCORE.SYSTEM>
0

>  <SCORE.SYSTEM.CONST>
0

>  <SCORE.SYSTEM.DIHEDRAL>
0

>  <SCORE.SYSTEM.SOLV>
0

>  <SCORE.SYSTEM.norm>
0

>  <SCORE.heavy>
12

>  <SCORE.norm>
-0.563548

>  <RMSD>
5.160

$$$$
ligand
 OpenBabel11021811503D
libRbt.so/2013.1/901 2013/11/27
 12 13  0  0  0  0  0  0  0  0999 V2000
    3.2263   13.1634    5.0969 C   0  0  0  0  0  0  0  0  0  0  0  0
    3.6590   14.7834    3.4772 C   0  0  0  0  0  0  0  0  0  0  0  0
    3.6386   12.1053    5.7892 N   0  0  0  0  0  0  0  0  0  0  0  0
    4.4304   15.3432    2.5388 N   0  0  0  0  0  0  0  0  0  0  0  0
    4.0454   13.7022    4.1673 N   0  0  0  0  0  0  0  0  0  0  0  0
    2.0112   13.6975    5.3517 N   0  0  0  0  0  0  0  0  0  0  0  0
    0.7185   17.0114    3.2395 N   0  0  0  0  0  0  0  0  0  0  0  0
   -0.1028   16.4279    4.2166 C   0  0  0  0  0  0  0  0  0  0  0  0
    0.3435   15.2892    4.9272 N   0  0  0  0  0  0  0  0  0  0  0  0
    1.5702   14.7853    4.6720 C   0  0  0  0  0  0  0  0  0  0  0  0
    2.4052   15.3621    3.7096 C   0  0  0  0  0  0  0  0  0  0  0  0
    1.9965   16.4776    2.9811 C   0  0  0  0  0  0  0  0  0  0  0  0
  1  3  1  0  0  0  0
  1  5  1  0  0  0  0
  1  6  2  0  0  0  0
  2  5  2  0  0  0  0
  2 11  1  0  0  0  0
  2  4  1  0  0  0  0
  6 10  1  0  0  0  0
  7  8  2  0  0  0  0
  7 12  1  0  0  0  0
  8  9  1  0  0  0  0
  9 10  2  0  0  0  0
 10 11  1  0  0  0  0
 11 12  2  0  0  0  0
M  END
>  <CHROM.1>
2.34406099,14.82108435,4.19248124,0.80329029,-0.41056044,2.43234424

>  <Name>
ligand

>  <RI>
0

>  <Rbt.Current_Directory>
/home/itssahil/PROJECTS/Mol_Feturizer/New_Systems/rnas/4LX5

>  <Rbt.Executable>
rbdock ($Id: //depot/dev/client3/rdock/2013.1/src/exe/rbdock.cxx#4 $)

>  <Rbt.Library>
libRbt.so (2013.1, Build901 2013/11/27)

>  <Rbt.Parameter_File>
/export/apps/rDock/src/rDock_2013.1_src/data/scripts/dock_solv.prm

>  <Rbt.Receptor>
prm/blind_docking_20.prm

>  <SCORE>
-6.99473

>  <SCORE.INTER>
-6.99473

>  <SCORE.INTER.CONST>
1

>  <SCORE.INTER.POLAR>
0

>  <SCORE.INTER.ROT>
0

>  <SCORE.INTER.SOLV>
15.8255

>  <SCORE.INTER.VDW>
-13.5383

>  <SCORE.INTER.norm>
-0.582895

>  <SCORE.INTRA>
0

>  <SCORE.INTRA.DIHEDRAL>
0

>  <SCORE.INTRA.DIHEDRAL.0>
0

>  <SCORE.INTRA.POLAR>
0

>  <SCORE.INTRA.POLAR.0>
0

>  <SCORE.INTRA.REPUL>
0

>  <SCORE.INTRA.REPUL.0>
0

>  <SCORE.INTRA.SOLV>
0

>  <SCORE.INTRA.SOLV.lig_0>
-48.1583

>  <SCORE.INTRA.VDW>
0

>  <SCORE.INTRA.VDW.0>
0

>  <SCORE.INTRA.norm>
0

>  <SCORE.RESTR>
0

>  <SCORE.RESTR.CAVITY>
0

>  <SCORE.RESTR.norm>
0

>  <SCORE.SYSTEM>
0

>  <SCORE.SYSTEM.CONST>
0

>  <SCORE.SYSTEM.DIHEDRAL>
0

>  <SCORE.SYSTEM.SOLV>
0

>  <SCORE.SYSTEM.norm>
0

>  <SCORE.heavy>
12

>  <SCORE.norm>
-0.582895

>  <RMSD>
5.772

$$$$
ligand
 OpenBabel11021811503D
libRbt.so/2013.1/901 2013/11/27
 12 13  0  0  0  0  0  0  0  0999 V2000
    3.2055   13.1358    5.1447 C   0  0  0  0  0  0  0  0  0  0  0  0
    3.6779   14.7462    3.5266 C   0  0  0  0  0  0  0  0  0  0  0  0
    3.5979   12.0772    5.8478 N   0  0  0  0  0  0  0  0  0  0  0  0
    4.4693   15.2966    2.5994 N   0  0  0  0  0  0  0  0  0  0  0  0
    4.0443   13.6648    4.2272 N   0  0  0  0  0  0  0  0  0  0  0  0
    1.9904   13.6801    5.3770 N   0  0  0  0  0  0  0  0  0  0  0  0
    0.7590   16.9957    3.2311 N   0  0  0  0  0  0  0  0  0  0  0  0
   -0.0831   16.4222    4.1962 C   0  0  0  0  0  0  0  0  0  0  0  0
    0.3423   15.2829    4.9185 N   0  0  0  0  0  0  0  0  0  0  0  0
    1.5693   14.7686    4.6859 C   0  0  0  0  0  0  0  0  0  0  0  0
    2.4248   15.3354    3.7357 C   0  0  0  0  0  0  0  0  0  0  0  0
    2.0370   16.4512    2.9962 C   0  0  0  0  0  0  0  0  0  0  0  0
  1  3  1  0  0  0  0
  1  5  1  0  0  0  0
  1  6  2  0  0  0  0
  2  5  2  0  0  0  0
  2 11  1  0  0  0  0
  2  4  1  0  0  0  0
  6 10  1  0  0  0  0
  7  8  2  0  0  0  0
  7 12  1  0  0  0  0
  8  9  1  0  0  0  0
  9 10  2  0  0  0  0
 10 11  1  0  0  0  0
 11 12  2  0  0  0  0
M  END
>  <CHROM.1>
2.35136091,14.79670640,4.21944794,0.82158106,-0.40269473,2.43581252

>  <Name>
ligand

>  <RI>
0

>  <Rbt.Current_Directory>
/home/itssahil/PROJECTS/Mol_Feturizer/New_Systems/rnas/4LX5

>  <Rbt.Executable>
rbdock ($Id: //depot/dev/client3/rdock/2013.1/src/exe/rbdock.cxx#4 $)

>  <Rbt.Library>
libRbt.so (2013.1, Build901 2013/11/27)

>  <Rbt.Parameter_File>
/export/apps/rDock/src/rDock_2013.1_src/data/scripts/dock_solv.prm

>  <Rbt.Receptor>
prm/blind_docking_20.prm

>  <SCORE>
-7.01754

>  <SCORE.INTER>
-7.01754

>  <SCORE.INTER.CONST>
1

>  <SCORE.INTER.POLAR>
0

>  <SCORE.INTER.ROT>
0

>  <SCORE.INTER.SOLV>
15.8931

>  <SCORE.INTER.VDW>
-13.5761

>  <SCORE.INTER.norm>
-0.584795

>  <SCORE.INTRA>
0

>  <SCORE.INTRA.DIHEDRAL>
0

>  <SCORE.INTRA.DIHEDRAL.0>
0

>  <SCORE.INTRA.POLAR>
0

>  <SCORE.INTRA.POLAR.0>
0

>  <SCORE.INTRA.REPUL>
0

>  <SCORE.INTRA.REPUL.0>
0

>  <SCORE.INTRA.SOLV>
0

>  <SCORE.INTRA.SOLV.lig_0>
-48.1583

>  <SCORE.INTRA.VDW>
0

>  <SCORE.INTRA.VDW.0>
0

>  <SCORE.INTRA.norm>
0

>  <SCORE.RESTR>
0

>  <SCORE.RESTR.CAVITY>
0

>  <SCORE.RESTR.norm>
0

>  <SCORE.SYSTEM>
0

>  <SCORE.SYSTEM.CONST>
0

>  <SCORE.SYSTEM.DIHEDRAL>
0

>  <SCORE.SYSTEM.SOLV>
0

>  <SCORE.SYSTEM.norm>
0

>  <SCORE.heavy>
12

>  <SCORE.norm>
-0.584795

>  <RMSD>
5.791

$$$$
ligand
 OpenBabel11021811503D
libRbt.so/2013.1/901 2013/11/27
 12 13  0  0  0  0  0  0  0  0999 V2000
    3.1969   13.1330    5.1277 C   0  0  0  0  0  0  0  0  0  0  0  0
    3.6547   14.7320    3.4942 C   0  0  0  0  0  0  0  0  0  0  0  0
    3.5934   12.0756    5.8303 N   0  0  0  0  0  0  0  0  0  0  0  0
    4.4352   15.2725    2.5521 N   0  0  0  0  0  0  0  0  0  0  0  0
    4.0249   13.6518    4.1948 N   0  0  0  0  0  0  0  0  0  0  0  0
    1.9889   13.6861    5.3756 N   0  0  0  0  0  0  0  0  0  0  0  0
    0.7457   16.9983    3.2312 N   0  0  0  0  0  0  0  0  0  0  0  0
   -0.0852   16.4351    4.2121 C   0  0  0  0  0  0  0  0  0  0  0  0
    0.3441   15.2969    4.9338 N   0  0  0  0  0  0  0  0  0  0  0  0
    1.5641   14.7737    4.6853 C   0  0  0  0  0  0  0  0  0  0  0  0
    2.4086   15.3301    3.7192 C   0  0  0  0  0  0  0  0  0  0  0  0
    2.0166   16.4445    2.9798 C   0  0  0  0  0  0  0  0  0  0  0  0
  1  3  1  0  0  0  0
  1  5  1  0  0  0  0
  1  6  2  0  0  0  0
  2  5  2  0  0  0  0
  2 11  1  0  0  0  0
  2  4  1  0  0  0  0
  6 10  1  0  0  0  0
  7  8  2  0  0  0  0
  7 12  1  0  0  0  0
  8  9  1  0  0  0  0
  9 10  2  0  0  0  0
 10 11  1  0  0  0  0
 11 12  2  0  0  0  0
M  END
>  <CHROM.1>
2.33919650,14.79440459,4.20682494,0.81595507,-0.41833407,2.42835233

>  <Name>
ligand

>  <RI>
0

>  <Rbt.Current_Directory>
/home/itssahil/PROJECTS/Mol_Feturizer/New_Systems/rnas/4LX5

>  <Rbt.Executable>
rbdock ($Id: //depot/dev/client3/rdock/2013.1/src/exe/rbdock.cxx#4 $)

>  <Rbt.Library>
libRbt.so (2013.1, Build901 2013/11/27)

>  <Rbt.Parameter_File>
/export/apps/rDock/src/rDock_2013.1_src/data/scripts/dock_solv.prm

>  <Rbt.Receptor>
prm/blind_docking_20.prm

>  <SCORE>
-7.06266

>  <SCORE.INTER>
-7.06266

>  <SCORE.INTER.CONST>
1

>  <SCORE.INTER.POLAR>
0

>  <SCORE.INTER.ROT>
0

>  <SCORE.INTER.SOLV>
15.9618

>  <SCORE.INTER.VDW>
-13.629

>  <SCORE.INTER.norm>
-0.588555

>  <SCORE.INTRA>
0

>  <SCORE.INTRA.DIHEDRAL>
0

>  <SCORE.INTRA.DIHEDRAL.0>
0

>  <SCORE.INTRA.POLAR>
0

>  <SCORE.INTRA.POLAR.0>
0

>  <SCORE.INTRA.REPUL>
0

>  <SCORE.INTRA.REPUL.0>
0

>  <SCORE.INTRA.SOLV>
0

>  <SCORE.INTRA.SOLV.lig_0>
-48.1583

>  <SCORE.INTRA.VDW>
0

>  <SCORE.INTRA.VDW.0>
0

>  <SCORE.INTRA.norm>
0

>  <SCORE.RESTR>
0

>  <SCORE.RESTR.CAVITY>
0

>  <SCORE.RESTR.norm>
0

>  <SCORE.SYSTEM>
0

>  <SCORE.SYSTEM.CONST>
0

>  <SCORE.SYSTEM.DIHEDRAL>
0

>  <SCORE.SYSTEM.SOLV>
0

>  <SCORE.SYSTEM.norm>
0

>  <SCORE.heavy>
12

>  <SCORE.norm>
-0.588555

>  <RMSD>
5.791

$$$$
ligand
 OpenBabel11021811503D
libRbt.so/2013.1/901 2013/11/27
 12 13  0  0  0  0  0  0  0  0999 V2000
    3.2028   13.1325    5.1173 C   0  0  0  0  0  0  0  0  0  0  0  0
    3.6643   14.7184    3.4721 C   0  0  0  0  0  0  0  0  0  0  0  0
    3.5984   12.0821    5.8308 N   0  0  0  0  0  0  0  0  0  0  0  0
    4.4480   15.2526    2.5289 N   0  0  0  0  0  0  0  0  0  0  0  0
    4.0338   13.6452    4.1837 N   0  0  0  0  0  0  0  0  0  0  0  0
    1.9924   13.6850    5.3549 N   0  0  0  0  0  0  0  0  0  0  0  0
    0.7515   16.9757    3.1763 N   0  0  0  0  0  0  0  0  0  0  0  0
   -0.0825   16.4191    4.1582 C   0  0  0  0  0  0  0  0  0  0  0  0
    0.3460   15.2882    4.8917 N   0  0  0  0  0  0  0  0  0  0  0  0
    1.5683   14.7656    4.6532 C   0  0  0  0  0  0  0  0  0  0  0  0
    2.4160   15.3156    3.6862 C   0  0  0  0  0  0  0  0  0  0  0  0
    2.0248   16.4227    2.9354 C   0  0  0  0  0  0  0  0  0  0  0  0
  1  3  1  0  0  0  0
  1  5  1  0  0  0  0
  1  6  2  0  0  0  0
  2  5  2  0  0  0  0
  2 11  1  0  0  0  0
  2  4  1  0  0  0  0
  6 10  1  0  0  0  0
  7  8  2  0  0  0  0
  7 12  1  0  0  0  0
  8  9  1  0  0  0  0
  9 10  2  0  0  0  0
 10 11  1  0  0  0  0
 11 12  2  0  0  0  0
M  END
>  <CHROM.1>
2.34550939,14.78398410,4.17812856,0.81736342,-0.41341975,2.42027656

>  <Name>
ligand

>  <RI>
0

>  <Rbt.Current_Directory>
/home/itssahil/PROJECTS/Mol_Feturizer/New_Systems/rnas/4LX5

>  <Rbt.Executable>
rbdock ($Id: //depot/dev/client3/rdock/2013.1/src/exe/rbdock.cxx#4 $)

>  <Rbt.Library>
libRbt.so (2013.1, Build901 2013/11/27)

>  <Rbt.Parameter_File>
/export/apps/rDock/src/rDock_2013.1_src/data/scripts/dock_solv.prm

>  <Rbt.Receptor>
prm/blind_docking_100.prm

>  <SCORE>
-6.99663

>  <SCORE.INTER>
-6.99663

>  <SCORE.INTER.CONST>
1

>  <SCORE.INTER.POLAR>
0

>  <SCORE.INTER.ROT>
0

>  <SCORE.INTER.SOLV>
16.1029

>  <SCORE.INTER.VDW>
-13.6321

>  <SCORE.INTER.norm>
-0.583053

>  <SCORE.INTRA>
0

>  <SCORE.INTRA.DIHEDRAL>
0

>  <SCORE.INTRA.DIHEDRAL.0>
0

>  <SCORE.INTRA.POLAR>
0

>  <SCORE.INTRA.POLAR.0>
0

>  <SCORE.INTRA.REPUL>
0

>  <SCORE.INTRA.REPUL.0>
0

>  <SCORE.INTRA.SOLV>
0

>  <SCORE.INTRA.SOLV.lig_0>
-48.1583

>  <SCORE.INTRA.VDW>
0

>  <SCORE.INTRA.VDW.0>
0

>  <SCORE.INTRA.norm>
0

>  <SCORE.RESTR>
0

>  <SCORE.RESTR.CAVITY>
0

>  <SCORE.RESTR.norm>
0

>  <SCORE.SYSTEM>
0

>  <SCORE.SYSTEM.CONST>
0

>  <SCORE.SYSTEM.DIHEDRAL>
0

>  <SCORE.SYSTEM.SOLV>
0

>  <SCORE.SYSTEM.norm>
0

>  <SCORE.heavy>
12

>  <SCORE.norm>
-0.583053

>  <RMSD>
5.793

$$$$
ligand
 OpenBabel11021811503D
libRbt.so/2013.1/901 2013/11/27
 12 13  0  0  0  0  0  0  0  0999 V2000
    3.1648   13.1267    5.1177 C   0  0  0  0  0  0  0  0  0  0  0  0
    3.6551   14.7314    3.4993 C   0  0  0  0  0  0  0  0  0  0  0  0
    3.5437   12.0613    5.8178 N   0  0  0  0  0  0  0  0  0  0  0  0
    4.4509   15.2705    2.5691 N   0  0  0  0  0  0  0  0  0  0  0  0
    4.0077   13.6435    4.1970 N   0  0  0  0  0  0  0  0  0  0  0  0
    1.9593   13.6896    5.3559 N   0  0  0  0  0  0  0  0  0  0  0  0
    0.7703   17.0265    3.2190 N   0  0  0  0  0  0  0  0  0  0  0  0
   -0.0763   16.4650    4.1873 C   0  0  0  0  0  0  0  0  0  0  0  0
    0.3345   15.3184    4.9064 N   0  0  0  0  0  0  0  0  0  0  0  0
    1.5522   14.7853    4.6678 C   0  0  0  0  0  0  0  0  0  0  0  0
    2.4123   15.3398    3.7145 C   0  0  0  0  0  0  0  0  0  0  0  0
    2.0387   16.4624    2.9779 C   0  0  0  0  0  0  0  0  0  0  0  0
  1  3  1  0  0  0  0
  1  5  1  0  0  0  0
  1  6  2  0  0  0  0
  2  5  2  0  0  0  0
  2 11  1  0  0  0  0
  2  4  1  0  0  0  0
  6 10  1  0  0  0  0
  7  8  2  0  0  0  0
  7 12  1  0  0  0  0
  8  9  1  0  0  0  0
  9 10  2  0  0  0  0
 10 11  1  0  0  0  0
 11 12  2  0  0  0  0
M  END
>  <CHROM.1>
2.33259895,14.80175536,4.19796592,0.83143669,-0.41613987,2.44086659

>  <Name>
ligand

>  <RI>
0

>  <Rbt.Current_Directory>
/home/itssahil/PROJECTS/Mol_Feturizer/New_Systems/rnas/4LX5

>  <Rbt.Executable>
rbdock ($Id: //depot/dev/client3/rdock/2013.1/src/exe/rbdock.cxx#4 $)

>  <Rbt.Library>
libRbt.so (2013.1, Build901 2013/11/27)

>  <Rbt.Parameter_File>
/export/apps/rDock/src/rDock_2013.1_src/data/scripts/dock_solv.prm

>  <Rbt.Receptor>
prm/blind_docking_40.prm

>  <SCORE>
-7.0328

>  <SCORE.INTER>
-7.0328

>  <SCORE.INTER.CONST>
1

>  <SCORE.INTER.POLAR>
0

>  <SCORE.INTER.ROT>
0

>  <SCORE.INTER.SOLV>
15.7382

>  <SCORE.INTER.VDW>
-13.5346

>  <SCORE.INTER.norm>
-0.586067

>  <SCORE.INTRA>
0

>  <SCORE.INTRA.DIHEDRAL>
0

>  <SCORE.INTRA.DIHEDRAL.0>
0

>  <SCORE.INTRA.POLAR>
0

>  <SCORE.INTRA.POLAR.0>
0

>  <SCORE.INTRA.REPUL>
0

>  <SCORE.INTRA.REPUL.0>
0

>  <SCORE.INTRA.SOLV>
0

>  <SCORE.INTRA.SOLV.lig_0>
-48.1583

>  <SCORE.INTRA.VDW>
0

>  <SCORE.INTRA.VDW.0>
0

>  <SCORE.INTRA.norm>
0

>  <SCORE.RESTR>
0

>  <SCORE.RESTR.CAVITY>
0

>  <SCORE.RESTR.norm>
0

>  <SCORE.SYSTEM>
0

>  <SCORE.SYSTEM.CONST>
0

>  <SCORE.SYSTEM.DIHEDRAL>
0

>  <SCORE.SYSTEM.SOLV>
0

>  <SCORE.SYSTEM.norm>
0

>  <SCORE.heavy>
12

>  <SCORE.norm>
-0.586067

>  <RMSD>
5.793

$$$$
ligand
 OpenBabel11021811503D
libRbt.so/2013.1/901 2013/11/27
 12 13  0  0  0  0  0  0  0  0999 V2000
   -3.4512   24.8160   -0.9796 C   0  0  0  0  0  0  0  0  0  0  0  0
   -2.6475   26.9198   -1.5820 C   0  0  0  0  0  0  0  0  0  0  0  0
   -4.4422   23.9290   -0.9887 N   0  0  0  0  0  0  0  0  0  0  0  0
   -2.7936   28.1304   -2.1317 N   0  0  0  0  0  0  0  0  0  0  0  0
   -3.6415   26.0219   -1.5582 N   0  0  0  0  0  0  0  0  0  0  0  0
   -2.2659   24.4889   -0.4187 N   0  0  0  0  0  0  0  0  0  0  0  0
    0.8461   27.2148   -0.4095 N   0  0  0  0  0  0  0  0  0  0  0  0
    1.0086   25.9502    0.1772 C   0  0  0  0  0  0  0  0  0  0  0  0
   -0.0639   25.0280    0.1778 N   0  0  0  0  0  0  0  0  0  0  0  0
   -1.2325   25.3675   -0.4078 C   0  0  0  0  0  0  0  0  0  0  0  0
   -1.4067   26.6193   -1.0067 C   0  0  0  0  0  0  0  0  0  0  0  0
   -0.3774   27.5588   -1.0176 C   0  0  0  0  0  0  0  0  0  0  0  0
  1  3  1  0  0  0  0
  1  5  1  0  0  0  0
  1  6  2  0  0  0  0
  2  5  2  0  0  0  0
  2 11  1  0  0  0  0
  2  4  1  0  0  0  0
  6 10  1  0  0  0  0
  7  8  2  0  0  0  0
  7 12  1  0  0  0  0
  8  9  1  0  0  0  0
  9 10  2  0  0  0  0
 10 11  1  0  0  0  0
 11 12  2  0  0  0  0
M  END
>  <CHROM.1>
-1.73283892,25.98826744,-0.84874339,-2.91022130,-0.32732604,-0.39749550

>  <Name>
ligand

>  <RI>
0

>  <Rbt.Current_Directory>
/home/itssahil/PROJECTS/Mol_Feturizer/New_Systems/rnas/4LX5

>  <Rbt.Executable>
rbdock ($Id: //depot/dev/client3/rdock/2013.1/src/exe/rbdock.cxx#4 $)

>  <Rbt.Library>
libRbt.so (2013.1, Build901 2013/11/27)

>  <Rbt.Parameter_File>
/export/apps/rDock/src/rDock_2013.1_src/data/scripts/dock_solv.prm

>  <Rbt.Receptor>
prm/blind_docking_100.prm

>  <SCORE>
-8.02388

>  <SCORE.INTER>
-8.02388

>  <SCORE.INTER.CONST>
1

>  <SCORE.INTER.POLAR>
0

>  <SCORE.INTER.ROT>
0

>  <SCORE.INTER.SOLV>
4.5189

>  <SCORE.INTER.VDW>
-10.4556

>  <SCORE.INTER.norm>
-0.668656

>  <SCORE.INTRA>
0

>  <SCORE.INTRA.DIHEDRAL>
0

>  <SCORE.INTRA.DIHEDRAL.0>
0

>  <SCORE.INTRA.POLAR>
0

>  <SCORE.INTRA.POLAR.0>
0

>  <SCORE.INTRA.REPUL>
0

>  <SCORE.INTRA.REPUL.0>
0

>  <SCORE.INTRA.SOLV>
0

>  <SCORE.INTRA.SOLV.lig_0>
-48.1583

>  <SCORE.INTRA.VDW>
0

>  <SCORE.INTRA.VDW.0>
0

>  <SCORE.INTRA.norm>
0

>  <SCORE.RESTR>
0

>  <SCORE.RESTR.CAVITY>
0

>  <SCORE.RESTR.norm>
0

>  <SCORE.SYSTEM>
0

>  <SCORE.SYSTEM.CONST>
0

>  <SCORE.SYSTEM.DIHEDRAL>
0

>  <SCORE.SYSTEM.SOLV>
0

>  <SCORE.SYSTEM.norm>
0

>  <SCORE.heavy>
12

>  <SCORE.norm>
-0.668656

>  <RMSD>
12.805

$$$$
ligand
 OpenBabel11021811503D
libRbt.so/2013.1/901 2013/11/27
 12 13  0  0  0  0  0  0  0  0999 V2000
   -3.4806   24.8042   -0.9588 C   0  0  0  0  0  0  0  0  0  0  0  0
   -2.6562   26.8662   -1.6684 C   0  0  0  0  0  0  0  0  0  0  0  0
   -4.4804   23.9279   -0.9223 N   0  0  0  0  0  0  0  0  0  0  0  0
   -2.7905   28.0484   -2.2796 N   0  0  0  0  0  0  0  0  0  0  0  0
   -3.6591   25.9807   -1.5985 N   0  0  0  0  0  0  0  0  0  0  0  0
   -2.2982   24.4945   -0.3819 N   0  0  0  0  0  0  0  0  0  0  0  0
    0.8409   27.1859   -0.5128 N   0  0  0  0  0  0  0  0  0  0  0  0
    0.9910   25.9516    0.1380 C   0  0  0  0  0  0  0  0  0  0  0  0
   -0.0906   25.0414    0.1860 N   0  0  0  0  0  0  0  0  0  0  0  0
   -1.2562   25.3621   -0.4161 C   0  0  0  0  0  0  0  0  0  0  0  0
   -1.4181   26.5832   -1.0786 C   0  0  0  0  0  0  0  0  0  0  0  0
   -0.3794   27.5105   -1.1377 C   0  0  0  0  0  0  0  0  0  0  0  0
  1  3  1  0  0  0  0
  1  5  1  0  0  0  0
  1  6  2  0  0  0  0
  2  5  2  0  0  0  0
  2 11  1  0  0  0  0
  2  4  1  0  0  0  0
  6 10  1  0  0  0  0
  7  8  2  0  0  0  0
  7 12  1  0  0  0  0
  8  9  1  0  0  0  0
  9 10  2  0  0  0  0
 10 11  1  0  0  0  0
 11 12  2  0  0  0  0
M  END
>  <CHROM.1>
-1.75047420,25.96437800,-0.88835800,-2.91971865,-0.32290737,-0.45187732

>  <Name>
ligand

>  <RI>
0

>  <Rbt.Current_Directory>
/home/itssahil/PROJECTS/Mol_Feturizer/New_Systems/rnas/4LX5

>  <Rbt.Executable>
rbdock ($Id: //depot/dev/client3/rdock/2013.1/src/exe/rbdock.cxx#4 $)

>  <Rbt.Library>
libRbt.so (2013.1, Build901 2013/11/27)

>  <Rbt.Parameter_File>
/export/apps/rDock/src/rDock_2013.1_src/data/scripts/dock_solv.prm

>  <Rbt.Receptor>
prm/blind_docking_100.prm

>  <SCORE>
-8.06611

>  <SCORE.INTER>
-8.06611

>  <SCORE.INTER.CONST>
1

>  <SCORE.INTER.POLAR>
0

>  <SCORE.INTER.ROT>
0

>  <SCORE.INTER.SOLV>
4.331

>  <SCORE.INTER.VDW>
-10.4211

>  <SCORE.INTER.norm>
-0.672176

>  <SCORE.INTRA>
0

>  <SCORE.INTRA.DIHEDRAL>
0

>  <SCORE.INTRA.DIHEDRAL.0>
0

>  <SCORE.INTRA.POLAR>
0

>  <SCORE.INTRA.POLAR.0>
0

>  <SCORE.INTRA.REPUL>
0

>  <SCORE.INTRA.REPUL.0>
0

>  <SCORE.INTRA.SOLV>
0

>  <SCORE.INTRA.SOLV.lig_0>
-48.1583

>  <SCORE.INTRA.VDW>
0

>  <SCORE.INTRA.VDW.0>
0

>  <SCORE.INTRA.norm>
0

>  <SCORE.RESTR>
0

>  <SCORE.RESTR.CAVITY>
0

>  <SCORE.RESTR.norm>
0

>  <SCORE.SYSTEM>
0

>  <SCORE.SYSTEM.CONST>
0

>  <SCORE.SYSTEM.DIHEDRAL>
0

>  <SCORE.SYSTEM.SOLV>
0

>  <SCORE.SYSTEM.norm>
0

>  <SCORE.heavy>
12

>  <SCORE.norm>
-0.672176

>  <RMSD>
12.816

$$$$
ligand
 OpenBabel11021811503D
libRbt.so/2013.1/901 2013/11/27
 12 13  0  0  0  0  0  0  0  0999 V2000
   -3.4397   24.8572   -1.0072 C   0  0  0  0  0  0  0  0  0  0  0  0
   -2.6023   26.9109   -1.7257 C   0  0  0  0  0  0  0  0  0  0  0  0
   -4.4430   23.9849   -0.9718 N   0  0  0  0  0  0  0  0  0  0  0  0
   -2.7276   28.0890   -2.3464 N   0  0  0  0  0  0  0  0  0  0  0  0
   -3.6090   26.0297   -1.6568 N   0  0  0  0  0  0  0  0  0  0  0  0
   -2.2629   24.5474   -0.4193 N   0  0  0  0  0  0  0  0  0  0  0  0
    0.8872   27.2261   -0.5462 N   0  0  0  0  0  0  0  0  0  0  0  0
    1.0279   25.9960    0.1146 C   0  0  0  0  0  0  0  0  0  0  0  0
   -0.0575   25.0903    0.1612 N   0  0  0  0  0  0  0  0  0  0  0  0
   -1.2173   25.4109   -0.4520 C   0  0  0  0  0  0  0  0  0  0  0  0
   -1.3698   26.6277   -1.1245 C   0  0  0  0  0  0  0  0  0  0  0  0
   -0.3272   27.5507   -1.1827 C   0  0  0  0  0  0  0  0  0  0  0  0
  1  3  1  0  0  0  0
  1  5  1  0  0  0  0
  1  6  2  0  0  0  0
  2  5  2  0  0  0  0
  2 11  1  0  0  0  0
  2  4  1  0  0  0  0
  6 10  1  0  0  0  0
  7  8  2  0  0  0  0
  7 12  1  0  0  0  0
  8  9  1  0  0  0  0
  9 10  2  0  0  0  0
 10 11  1  0  0  0  0
 11 12  2  0  0  0  0
M  END
>  <CHROM.1>
-1.70582534,26.01146611,-0.93229633,-2.92672143,-0.32797990,-0.46142389

>  <Name>
ligand

>  <RI>
0

>  <Rbt.Current_Directory>
/home/itssahil/PROJECTS/Mol_Feturizer/New_Systems/rnas/4LX5

>  <Rbt.Executable>
rbdock ($Id: //depot/dev/client3/rdock/2013.1/src/exe/rbdock.cxx#4 $)

>  <Rbt.Library>
libRbt.so (2013.1, Build901 2013/11/27)

>  <Rbt.Parameter_File>
/export/apps/rDock/src/rDock_2013.1_src/data/scripts/dock_solv.prm

>  <Rbt.Receptor>
prm/blind_docking_80.prm

>  <SCORE>
-8.0539

>  <SCORE.INTER>
-8.0539

>  <SCORE.INTER.CONST>
1

>  <SCORE.INTER.POLAR>
0

>  <SCORE.INTER.ROT>
0

>  <SCORE.INTER.SOLV>
4.23271

>  <SCORE.INTER.VDW>
-10.3802

>  <SCORE.INTER.norm>
-0.671158

>  <SCORE.INTRA>
0

>  <SCORE.INTRA.DIHEDRAL>
0

>  <SCORE.INTRA.DIHEDRAL.0>
0

>  <SCORE.INTRA.POLAR>
0

>  <SCORE.INTRA.POLAR.0>
0

>  <SCORE.INTRA.REPUL>
0

>  <SCORE.INTRA.REPUL.0>
0

>  <SCORE.INTRA.SOLV>
0

>  <SCORE.INTRA.SOLV.lig_0>
-48.1583

>  <SCORE.INTRA.VDW>
0

>  <SCORE.INTRA.VDW.0>
0

>  <SCORE.INTRA.norm>
0

>  <SCORE.RESTR>
0

>  <SCORE.RESTR.CAVITY>
0

>  <SCORE.RESTR.norm>
0

>  <SCORE.SYSTEM>
0

>  <SCORE.SYSTEM.CONST>
0

>  <SCORE.SYSTEM.DIHEDRAL>
0

>  <SCORE.SYSTEM.SOLV>
0

>  <SCORE.SYSTEM.norm>
0

>  <SCORE.heavy>
12

>  <SCORE.norm>
-0.671158

>  <RMSD>
12.835

$$$$
ligand
 OpenBabel11021811503D
libRbt.so/2013.1/901 2013/11/27
 12 13  0  0  0  0  0  0  0  0999 V2000
   -0.1613   26.6849   -1.0513 C   0  0  0  0  0  0  0  0  0  0  0  0
   -2.2488   27.2064   -1.9487 C   0  0  0  0  0  0  0  0  0  0  0  0
    1.1070   27.0264   -0.8424 N   0  0  0  0  0  0  0  0  0  0  0  0
   -3.0753   27.9955   -2.6438 N   0  0  0  0  0  0  0  0  0  0  0  0
   -0.9618   27.5201   -1.7491 N   0  0  0  0  0  0  0  0  0  0  0  0
   -0.6348   25.5262   -0.5415 N   0  0  0  0  0  0  0  0  0  0  0  0
   -4.5855   24.4567   -1.1441 N   0  0  0  0  0  0  0  0  0  0  0  0
   -3.7255   23.6170   -0.4196 C   0  0  0  0  0  0  0  0  0  0  0  0
   -2.3738   23.9861   -0.2265 N   0  0  0  0  0  0  0  0  0  0  0  0
   -1.9274   25.1589   -0.7259 C   0  0  0  0  0  0  0  0  0  0  0  0
   -2.7746   26.0122   -1.4403 C   0  0  0  0  0  0  0  0  0  0  0  0
   -4.1095   25.6781   -1.6608 C   0  0  0  0  0  0  0  0  0  0  0  0
  1  3  1  0  0  0  0
  1  5  1  0  0  0  0
  1  6  2  0  0  0  0
  2  5  2  0  0  0  0
  2 11  1  0  0  0  0
  2  4  1  0  0  0  0
  6 10  1  0  0  0  0
  7  8  2  0  0  0  0
  7 12  1  0  0  0  0
  8  9  1  0  0  0  0
  9 10  2  0  0  0  0
 10 11  1  0  0  0  0
 11 12  2  0  0  0  0
M  END
>  <CHROM.1>
-2.09433090,25.91948524,-1.19887054,-0.57725463,0.25668421,2.63802565

>  <Name>
ligand

>  <RI>
0

>  <Rbt.Current_Directory>
/home/itssahil/PROJECTS/Mol_Feturizer/New_Systems/rnas/4LX5

>  <Rbt.Executable>
rbdock ($Id: //depot/dev/client3/rdock/2013.1/src/exe/rbdock.cxx#4 $)

>  <Rbt.Library>
libRbt.so (2013.1, Build901 2013/11/27)

>  <Rbt.Parameter_File>
/export/apps/rDock/src/rDock_2013.1_src/data/scripts/dock_solv.prm

>  <Rbt.Receptor>
prm/blind_docking_40.prm

>  <SCORE>
-7.51232

>  <SCORE.INTER>
-7.51232

>  <SCORE.INTER.CONST>
1

>  <SCORE.INTER.POLAR>
0

>  <SCORE.INTER.ROT>
0

>  <SCORE.INTER.SOLV>
3.31656

>  <SCORE.INTER.VDW>
-9.71373

>  <SCORE.INTER.norm>
-0.626027

>  <SCORE.INTRA>
0

>  <SCORE.INTRA.DIHEDRAL>
0

>  <SCORE.INTRA.DIHEDRAL.0>
0

>  <SCORE.INTRA.POLAR>
0

>  <SCORE.INTRA.POLAR.0>
0

>  <SCORE.INTRA.REPUL>
0

>  <SCORE.INTRA.REPUL.0>
0

>  <SCORE.INTRA.SOLV>
0

>  <SCORE.INTRA.SOLV.lig_0>
-48.1583

>  <SCORE.INTRA.VDW>
0

>  <SCORE.INTRA.VDW.0>
0

>  <SCORE.INTRA.norm>
0

>  <SCORE.RESTR>
0

>  <SCORE.RESTR.CAVITY>
0

>  <SCORE.RESTR.norm>
0

>  <SCORE.SYSTEM>
0

>  <SCORE.SYSTEM.CONST>
0

>  <SCORE.SYSTEM.DIHEDRAL>
0

>  <SCORE.SYSTEM.SOLV>
0

>  <SCORE.SYSTEM.norm>
0

>  <SCORE.heavy>
12

>  <SCORE.norm>
-0.626027

>  <RMSD>
13.067

$$$$
ligand
 OpenBabel11021811503D
libRbt.so/2013.1/901 2013/11/27
 12 13  0  0  0  0  0  0  0  0999 V2000
   -0.3894   26.7482   -1.3887 C   0  0  0  0  0  0  0  0  0  0  0  0
   -2.5699   27.1322   -2.1187 C   0  0  0  0  0  0  0  0  0  0  0  0
    0.8740   27.1559   -1.3083 N   0  0  0  0  0  0  0  0  0  0  0  0
   -3.4912   27.8495   -2.7712 N   0  0  0  0  0  0  0  0  0  0  0  0
   -1.2873   27.5125   -2.0481 N   0  0  0  0  0  0  0  0  0  0  0  0
   -0.7597   25.5950   -0.7890 N   0  0  0  0  0  0  0  0  0  0  0  0
   -4.6907   24.3218   -0.9910 N   0  0  0  0  0  0  0  0  0  0  0  0
   -3.7311   23.5570   -0.3100 C   0  0  0  0  0  0  0  0  0  0  0  0
   -2.3874   23.9951   -0.2541 N   0  0  0  0  0  0  0  0  0  0  0  0
   -2.0439   25.1617   -0.8415 C   0  0  0  0  0  0  0  0  0  0  0  0
   -2.9905   25.9412   -1.5142 C   0  0  0  0  0  0  0  0  0  0  0  0
   -4.3216   25.5373   -1.6005 C   0  0  0  0  0  0  0  0  0  0  0  0
  1  3  1  0  0  0  0
  1  5  1  0  0  0  0
  1  6  2  0  0  0  0
  2  5  2  0  0  0  0
  2 11  1  0  0  0  0
  2  4  1  0  0  0  0
  6 10  1  0  0  0  0
  7  8  2  0  0  0  0
  7 12  1  0  0  0  0
  8  9  1  0  0  0  0
  9 10  2  0  0  0  0
 10 11  1  0  0  0  0
 11 12  2  0  0  0  0
M  END
>  <CHROM.1>
-2.28821516,25.89066328,-1.33042498,-0.66382139,0.20334643,2.61217436

>  <Name>
ligand

>  <RI>
0

>  <Rbt.Current_Directory>
/home/itssahil/PROJECTS/Mol_Feturizer/New_Systems/rnas/4LX5

>  <Rbt.Executable>
rbdock ($Id: //depot/dev/client3/rdock/2013.1/src/exe/rbdock.cxx#4 $)

>  <Rbt.Library>
libRbt.so (2013.1, Build901 2013/11/27)

>  <Rbt.Parameter_File>
/export/apps/rDock/src/rDock_2013.1_src/data/scripts/dock_solv.prm

>  <Rbt.Receptor>
prm/blind_docking_40.prm

>  <SCORE>
-7.54064

>  <SCORE.INTER>
-7.54064

>  <SCORE.INTER.CONST>
1

>  <SCORE.INTER.POLAR>
0

>  <SCORE.INTER.ROT>
0

>  <SCORE.INTER.SOLV>
2.44

>  <SCORE.INTER.VDW>
-9.44042

>  <SCORE.INTER.norm>
-0.628386

>  <SCORE.INTRA>
0

>  <SCORE.INTRA.DIHEDRAL>
0

>  <SCORE.INTRA.DIHEDRAL.0>
0

>  <SCORE.INTRA.POLAR>
0

>  <SCORE.INTRA.POLAR.0>
0

>  <SCORE.INTRA.REPUL>
0

>  <SCORE.INTRA.REPUL.0>
0

>  <SCORE.INTRA.SOLV>
0

>  <SCORE.INTRA.SOLV.lig_0>
-48.1583

>  <SCORE.INTRA.VDW>
0

>  <SCORE.INTRA.VDW.0>
0

>  <SCORE.INTRA.norm>
0

>  <SCORE.RESTR>
0

>  <SCORE.RESTR.CAVITY>
0

>  <SCORE.RESTR.norm>
0

>  <SCORE.SYSTEM>
0

>  <SCORE.SYSTEM.CONST>
0

>  <SCORE.SYSTEM.DIHEDRAL>
0

>  <SCORE.SYSTEM.SOLV>
0

>  <SCORE.SYSTEM.norm>
0

>  <SCORE.heavy>
12

>  <SCORE.norm>
-0.628386

>  <RMSD>
13.183

$$$$
ligand
 OpenBabel11021811503D
libRbt.so/2013.1/901 2013/11/27
 12 13  0  0  0  0  0  0  0  0999 V2000
   -3.8775   25.8442   -1.6202 C   0  0  0  0  0  0  0  0  0  0  0  0
   -2.2931   27.3480   -2.4345 C   0  0  0  0  0  0  0  0  0  0  0  0
   -5.1282   25.3917   -1.6262 N   0  0  0  0  0  0  0  0  0  0  0  0
   -1.9281   28.3913   -3.1878 N   0  0  0  0  0  0  0  0  0  0  0  0
   -3.5530   26.8933   -2.4071 N   0  0  0  0  0  0  0  0  0  0  0  0
   -2.9489   25.2333   -0.8514 N   0  0  0  0  0  0  0  0  0  0  0  0
    0.9572   26.5962   -0.8416 N   0  0  0  0  0  0  0  0  0  0  0  0
    0.5841   25.5054   -0.0412 C   0  0  0  0  0  0  0  0  0  0  0  0
   -0.7557   25.0521   -0.0436 N   0  0  0  0  0  0  0  0  0  0  0  0
   -1.6625   25.6633   -0.8362 C   0  0  0  0  0  0  0  0  0  0  0  0
   -1.3042   26.7443   -1.6481 C   0  0  0  0  0  0  0  0  0  0  0  0
    0.0032   27.2267   -1.6646 C   0  0  0  0  0  0  0  0  0  0  0  0
  1  3  1  0  0  0  0
  1  5  1  0  0  0  0
  1  6  2  0  0  0  0
  2  5  2  0  0  0  0
  2 11  1  0  0  0  0
  2  4  1  0  0  0  0
  6 10  1  0  0  0  0
  7  8  2  0  0  0  0
  7 12  1  0  0  0  0
  8  9  1  0  0  0  0
  9 10  2  0  0  0  0
 10 11  1  0  0  0  0
 11 12  2  0  0  0  0
M  END
>  <CHROM.1>
-1.85628771,26.31920854,-1.43811185,2.97477146,-0.22065735,-0.69759838

>  <Name>
ligand

>  <RI>
0

>  <Rbt.Current_Directory>
/home/itssahil/PROJECTS/Mol_Feturizer/New_Systems/rnas/4LX5

>  <Rbt.Executable>
rbdock ($Id: //depot/dev/client3/rdock/2013.1/src/exe/rbdock.cxx#4 $)

>  <Rbt.Library>
libRbt.so (2013.1, Build901 2013/11/27)

>  <Rbt.Parameter_File>
/export/apps/rDock/src/rDock_2013.1_src/data/scripts/dock_solv.prm

>  <Rbt.Receptor>
prm/blind_docking_100.prm

>  <SCORE>
-7.37715

>  <SCORE.INTER>
-7.37715

>  <SCORE.INTER.CONST>
1

>  <SCORE.INTER.POLAR>
0

>  <SCORE.INTER.ROT>
0

>  <SCORE.INTER.SOLV>
1.98051

>  <SCORE.INTER.VDW>
-9.17827

>  <SCORE.INTER.norm>
-0.614762

>  <SCORE.INTRA>
0

>  <SCORE.INTRA.DIHEDRAL>
0

>  <SCORE.INTRA.DIHEDRAL.0>
0

>  <SCORE.INTRA.POLAR>
0

>  <SCORE.INTRA.POLAR.0>
0

>  <SCORE.INTRA.REPUL>
0

>  <SCORE.INTRA.REPUL.0>
0

>  <SCORE.INTRA.SOLV>
0

>  <SCORE.INTRA.SOLV.lig_0>
-48.1583

>  <SCORE.INTRA.VDW>
0

>  <SCORE.INTRA.VDW.0>
0

>  <SCORE.INTRA.norm>
0

>  <SCORE.RESTR>
0

>  <SCORE.RESTR.CAVITY>
0

>  <SCORE.RESTR.norm>
0

>  <SCORE.SYSTEM>
0

>  <SCORE.SYSTEM.CONST>
0

>  <SCORE.SYSTEM.DIHEDRAL>
0

>  <SCORE.SYSTEM.SOLV>
0

>  <SCORE.SYSTEM.norm>
0

>  <SCORE.heavy>
12

>  <SCORE.norm>
-0.614762

>  <RMSD>
13.315

$$$$
ligand
 OpenBabel11021811503D
libRbt.so/2013.1/901 2013/11/27
 12 13  0  0  0  0  0  0  0  0999 V2000
   -2.0058   27.9264   -3.8878 C   0  0  0  0  0  0  0  0  0  0  0  0
   -3.0571   26.8596   -2.1013 C   0  0  0  0  0  0  0  0  0  0  0  0
   -2.0993   28.6749   -4.9832 N   0  0  0  0  0  0  0  0  0  0  0  0
   -4.1452   26.4934   -1.4151 N   0  0  0  0  0  0  0  0  0  0  0  0
   -3.1319   27.5915   -3.2209 N   0  0  0  0  0  0  0  0  0  0  0  0
   -0.7894   27.5370   -3.4456 N   0  0  0  0  0  0  0  0  0  0  0  0
   -0.4662   25.2397   -0.0203 N   0  0  0  0  0  0  0  0  0  0  0  0
    0.6820   25.6115   -0.7364 C   0  0  0  0  0  0  0  0  0  0  0  0
    0.5614   26.3891   -1.9117 N   0  0  0  0  0  0  0  0  0  0  0  0
   -0.6621   26.7858   -2.3234 C   0  0  0  0  0  0  0  0  0  0  0  0
   -1.8152   26.4333   -1.6147 C   0  0  0  0  0  0  0  0  0  0  0  0
   -1.7380   25.6588   -0.4586 C   0  0  0  0  0  0  0  0  0  0  0  0
  1  3  1  0  0  0  0
  1  5  1  0  0  0  0
  1  6  2  0  0  0  0
  2  5  2  0  0  0  0
  2 11  1  0  0  0  0
  2  4  1  0  0  0  0
  6 10  1  0  0  0  0
  7  8  2  0  0  0  0
  7 12  1  0  0  0  0
  8  9  1  0  0  0  0
  9 10  2  0  0  0  0
 10 11  1  0  0  0  0
 11 12  2  0  0  0  0
M  END
>  <CHROM.1>
-1.56500890,26.78368748,-2.20134443,-2.06983162,-0.07610810,2.15397812

>  <Name>
ligand

>  <RI>
0

>  <Rbt.Current_Directory>
/home/itssahil/PROJECTS/Mol_Feturizer/New_Systems/rnas/4LX5

>  <Rbt.Executable>
rbdock ($Id: //depot/dev/client3/rdock/2013.1/src/exe/rbdock.cxx#4 $)

>  <Rbt.Library>
libRbt.so (2013.1, Build901 2013/11/27)

>  <Rbt.Parameter_File>
/export/apps/rDock/src/rDock_2013.1_src/data/scripts/dock_solv.prm

>  <Rbt.Receptor>
prm/blind_docking_40.prm

>  <SCORE>
-7.24407

>  <SCORE.INTER>
-7.24407

>  <SCORE.INTER.CONST>
1

>  <SCORE.INTER.POLAR>
0

>  <SCORE.INTER.ROT>
0

>  <SCORE.INTER.SOLV>
3.15938

>  <SCORE.INTER.VDW>
-9.48251

>  <SCORE.INTER.norm>
-0.603673

>  <SCORE.INTRA>
0

>  <SCORE.INTRA.DIHEDRAL>
0

>  <SCORE.INTRA.DIHEDRAL.0>
0

>  <SCORE.INTRA.POLAR>
0

>  <SCORE.INTRA.POLAR.0>
0

>  <SCORE.INTRA.REPUL>
0

>  <SCORE.INTRA.REPUL.0>
0

>  <SCORE.INTRA.SOLV>
0

>  <SCORE.INTRA.SOLV.lig_0>
-48.1583

>  <SCORE.INTRA.VDW>
0

>  <SCORE.INTRA.VDW.0>
0

>  <SCORE.INTRA.norm>
0

>  <SCORE.RESTR>
0

>  <SCORE.RESTR.CAVITY>
0

>  <SCORE.RESTR.norm>
0

>  <SCORE.SYSTEM>
0

>  <SCORE.SYSTEM.CONST>
0

>  <SCORE.SYSTEM.DIHEDRAL>
0

>  <SCORE.SYSTEM.SOLV>
0

>  <SCORE.SYSTEM.norm>
0

>  <SCORE.heavy>
12

>  <SCORE.norm>
-0.603673

>  <RMSD>
13.470

$$$$
ligand
 OpenBabel11021811503D
libRbt.so/2013.1/901 2013/11/27
 12 13  0  0  0  0  0  0  0  0999 V2000
   -1.9869   27.9315   -3.9014 C   0  0  0  0  0  0  0  0  0  0  0  0
   -3.0481   26.8707   -2.1172 C   0  0  0  0  0  0  0  0  0  0  0  0
   -2.0739   28.6801   -4.9972 N   0  0  0  0  0  0  0  0  0  0  0  0
   -4.1398   26.5104   -1.4335 N   0  0  0  0  0  0  0  0  0  0  0  0
   -3.1164   27.6027   -3.2371 N   0  0  0  0  0  0  0  0  0  0  0  0
   -0.7737   27.5358   -3.4561 N   0  0  0  0  0  0  0  0  0  0  0  0
   -0.4708   25.2378   -0.0295 N   0  0  0  0  0  0  0  0  0  0  0  0
    0.6811   25.6034   -0.7429 C   0  0  0  0  0  0  0  0  0  0  0  0
    0.5674   26.3812   -1.9188 N   0  0  0  0  0  0  0  0  0  0  0  0
   -0.6531   26.7842   -2.3335 C   0  0  0  0  0  0  0  0  0  0  0  0
   -1.8097   26.4380   -1.6274 C   0  0  0  0  0  0  0  0  0  0  0  0
   -1.7393   25.6635   -0.4710 C   0  0  0  0  0  0  0  0  0  0  0  0
  1  3  1  0  0  0  0
  1  5  1  0  0  0  0
  1  6  2  0  0  0  0
  2  5  2  0  0  0  0
  2 11  1  0  0  0  0
  2  4  1  0  0  0  0
  6 10  1  0  0  0  0
  7  8  2  0  0  0  0
  7 12  1  0  0  0  0
  8  9  1  0  0  0  0
  9 10  2  0  0  0  0
 10 11  1  0  0  0  0
 11 12  2  0  0  0  0
M  END
>  <CHROM.1>
-1.55620693,26.78693535,-2.21359404,-2.06491510,-0.07917847,2.15409412

>  <Name>
ligand

>  <RI>
0

>  <Rbt.Current_Directory>
/home/itssahil/PROJECTS/Mol_Feturizer/New_Systems/rnas/4LX5

>  <Rbt.Executable>
rbdock ($Id: //depot/dev/client3/rdock/2013.1/src/exe/rbdock.cxx#4 $)

>  <Rbt.Library>
libRbt.so (2013.1, Build901 2013/11/27)

>  <Rbt.Parameter_File>
/export/apps/rDock/src/rDock_2013.1_src/data/scripts/dock_solv.prm

>  <Rbt.Receptor>
prm/blind_docking_40.prm

>  <SCORE>
-7.24485

>  <SCORE.INTER>
-7.24485

>  <SCORE.INTER.CONST>
1

>  <SCORE.INTER.POLAR>
0

>  <SCORE.INTER.ROT>
0

>  <SCORE.INTER.SOLV>
3.14891

>  <SCORE.INTER.VDW>
-9.47953

>  <SCORE.INTER.norm>
-0.603737

>  <SCORE.INTRA>
0

>  <SCORE.INTRA.DIHEDRAL>
0

>  <SCORE.INTRA.DIHEDRAL.0>
0

>  <SCORE.INTRA.POLAR>
0

>  <SCORE.INTRA.POLAR.0>
0

>  <SCORE.INTRA.REPUL>
0

>  <SCORE.INTRA.REPUL.0>
0

>  <SCORE.INTRA.SOLV>
0

>  <SCORE.INTRA.SOLV.lig_0>
-48.1583

>  <SCORE.INTRA.VDW>
0

>  <SCORE.INTRA.VDW.0>
0

>  <SCORE.INTRA.norm>
0

>  <SCORE.RESTR>
0

>  <SCORE.RESTR.CAVITY>
0

>  <SCORE.RESTR.norm>
0

>  <SCORE.SYSTEM>
0

>  <SCORE.SYSTEM.CONST>
0

>  <SCORE.SYSTEM.DIHEDRAL>
0

>  <SCORE.SYSTEM.SOLV>
0

>  <SCORE.SYSTEM.norm>
0

>  <SCORE.heavy>
12

>  <SCORE.norm>
-0.603737

>  <RMSD>
13.472

$$$$
ligand
 OpenBabel11021811503D
libRbt.so/2013.1/901 2013/11/27
 12 13  0  0  0  0  0  0  0  0999 V2000
   -1.6883   25.7872   -0.7976 C   0  0  0  0  0  0  0  0  0  0  0  0
   -3.8476   26.6371   -1.0219 C   0  0  0  0  0  0  0  0  0  0  0  0
   -0.3747   25.9746   -0.8876 N   0  0  0  0  0  0  0  0  0  0  0  0
   -4.7114   27.6038   -1.3511 N   0  0  0  0  0  0  0  0  0  0  0  0
   -2.5219   26.7972   -1.1297 N   0  0  0  0  0  0  0  0  0  0  0  0
   -2.1663   24.6043   -0.3515 N   0  0  0  0  0  0  0  0  0  0  0  0
   -6.2470   24.0067   -0.0262 N   0  0  0  0  0  0  0  0  0  0  0  0
   -5.3503   22.9824    0.3150 C   0  0  0  0  0  0  0  0  0  0  0  0
   -3.9569   23.1923    0.1916 N   0  0  0  0  0  0  0  0  0  0  0  0
   -3.5006   24.3895   -0.2353 C   0  0  0  0  0  0  0  0  0  0  0  0
   -4.3806   25.4243   -0.5682 C   0  0  0  0  0  0  0  0  0  0  0  0
   -5.7602   25.2520   -0.4705 C   0  0  0  0  0  0  0  0  0  0  0  0
  1  3  1  0  0  0  0
  1  5  1  0  0  0  0
  1  6  2  0  0  0  0
  2  5  2  0  0  0  0
  2 11  1  0  0  0  0
  2  4  1  0  0  0  0
  6 10  1  0  0  0  0
  7  8  2  0  0  0  0
  7 12  1  0  0  0  0
  8  9  1  0  0  0  0
  9 10  2  0  0  0  0
 10 11  1  0  0  0  0
 11 12  2  0  0  0  0
M  END
>  <CHROM.1>
-3.67972882,25.23186265,-0.53271439,-0.58365372,-0.02775107,2.80036244

>  <Name>
ligand

>  <RI>
0

>  <Rbt.Current_Directory>
/home/itssahil/PROJECTS/Mol_Feturizer/New_Systems/rnas/4LX5

>  <Rbt.Executable>
rbdock ($Id: //depot/dev/client3/rdock/2013.1/src/exe/rbdock.cxx#4 $)

>  <Rbt.Library>
libRbt.so (2013.1, Build901 2013/11/27)

>  <Rbt.Parameter_File>
/export/apps/rDock/src/rDock_2013.1_src/data/scripts/dock_solv.prm

>  <Rbt.Receptor>
prm/blind_docking_80.prm

>  <SCORE>
-7.72407

>  <SCORE.INTER>
-7.72407

>  <SCORE.INTER.CONST>
1

>  <SCORE.INTER.POLAR>
0

>  <SCORE.INTER.ROT>
0

>  <SCORE.INTER.SOLV>
7.61149

>  <SCORE.INTER.VDW>
-11.2865

>  <SCORE.INTER.norm>
-0.643673

>  <SCORE.INTRA>
0

>  <SCORE.INTRA.DIHEDRAL>
0

>  <SCORE.INTRA.DIHEDRAL.0>
0

>  <SCORE.INTRA.POLAR>
0

>  <SCORE.INTRA.POLAR.0>
0

>  <SCORE.INTRA.REPUL>
0

>  <SCORE.INTRA.REPUL.0>
0

>  <SCORE.INTRA.SOLV>
0

>  <SCORE.INTRA.SOLV.lig_0>
-48.1583

>  <SCORE.INTRA.VDW>
0

>  <SCORE.INTRA.VDW.0>
0

>  <SCORE.INTRA.norm>
0

>  <SCORE.RESTR>
0

>  <SCORE.RESTR.CAVITY>
0

>  <SCORE.RESTR.norm>
0

>  <SCORE.SYSTEM>
0

>  <SCORE.SYSTEM.CONST>
0

>  <SCORE.SYSTEM.DIHEDRAL>
0

>  <SCORE.SYSTEM.SOLV>
0

>  <SCORE.SYSTEM.norm>
0

>  <SCORE.heavy>
12

>  <SCORE.norm>
-0.643673

>  <RMSD>
13.478

$$$$
ligand
 OpenBabel11021811503D
libRbt.so/2013.1/901 2013/11/27
 12 13  0  0  0  0  0  0  0  0999 V2000
   -5.7125   10.9263   -0.3526 C   0  0  0  0  0  0  0  0  0  0  0  0
   -7.2043   12.4619    0.5702 C   0  0  0  0  0  0  0  0  0  0  0  0
   -5.4207    9.6667   -0.6640 N   0  0  0  0  0  0  0  0  0  0  0  0
   -8.3428   12.7765    1.1978 N   0  0  0  0  0  0  0  0  0  0  0  0
   -6.8802   11.1970    0.2706 N   0  0  0  0  0  0  0  0  0  0  0  0
   -4.8532   11.9144   -0.6871 N   0  0  0  0  0  0  0  0  0  0  0  0
   -5.7527   15.8455    0.2360 N   0  0  0  0  0  0  0  0  0  0  0  0
   -4.5516   15.5266   -0.4159 C   0  0  0  0  0  0  0  0  0  0  0  0
   -4.2478   14.1789   -0.7192 N   0  0  0  0  0  0  0  0  0  0  0  0
   -5.1309   13.2097   -0.3956 C   0  0  0  0  0  0  0  0  0  0  0  0
   -6.3374   13.5121    0.2440 C   0  0  0  0  0  0  0  0  0  0  0  0
   -6.6670   14.8266    0.5692 C   0  0  0  0  0  0  0  0  0  0  0  0
  1  3  1  0  0  0  0
  1  5  1  0  0  0  0
  1  6  2  0  0  0  0
  2  5  2  0  0  0  0
  2 11  1  0  0  0  0
  2  4  1  0  0  0  0
  6 10  1  0  0  0  0
  7  8  2  0  0  0  0
  7 12  1  0  0  0  0
  8  9  1  0  0  0  0
  9 10  2  0  0  0  0
 10 11  1  0  0  0  0
 11 12  2  0  0  0  0
M  END
>  <CHROM.1>
-5.92441470,12.97228897,-0.01594929,-1.74435858,0.46769483,0.11602550

>  <Name>
ligand

>  <RI>
0

>  <Rbt.Current_Directory>
/home/itssahil/PROJECTS/Mol_Feturizer/New_Systems/rnas/4LX5

>  <Rbt.Executable>
rbdock ($Id: //depot/dev/client3/rdock/2013.1/src/exe/rbdock.cxx#4 $)

>  <Rbt.Library>
libRbt.so (2013.1, Build901 2013/11/27)

>  <Rbt.Parameter_File>
/export/apps/rDock/src/rDock_2013.1_src/data/scripts/dock_solv.prm

>  <Rbt.Receptor>
prm/blind_docking_20.prm

>  <SCORE>
-7.35974

>  <SCORE.INTER>
-7.35974

>  <SCORE.INTER.CONST>
1

>  <SCORE.INTER.POLAR>
0

>  <SCORE.INTER.ROT>
0

>  <SCORE.INTER.SOLV>
10.4914

>  <SCORE.INTER.VDW>
-12.0036

>  <SCORE.INTER.norm>
-0.613312

>  <SCORE.INTRA>
0

>  <SCORE.INTRA.DIHEDRAL>
0

>  <SCORE.INTRA.DIHEDRAL.0>
0

>  <SCORE.INTRA.POLAR>
0

>  <SCORE.INTRA.POLAR.0>
0

>  <SCORE.INTRA.REPUL>
0

>  <SCORE.INTRA.REPUL.0>
0

>  <SCORE.INTRA.SOLV>
0

>  <SCORE.INTRA.SOLV.lig_0>
-48.1583

>  <SCORE.INTRA.VDW>
0

>  <SCORE.INTRA.VDW.0>
0

>  <SCORE.INTRA.norm>
0

>  <SCORE.RESTR>
0

>  <SCORE.RESTR.CAVITY>
0

>  <SCORE.RESTR.norm>
0

>  <SCORE.SYSTEM>
0

>  <SCORE.SYSTEM.CONST>
0

>  <SCORE.SYSTEM.DIHEDRAL>
0

>  <SCORE.SYSTEM.SOLV>
0

>  <SCORE.SYSTEM.norm>
0

>  <SCORE.heavy>
12

>  <SCORE.norm>
-0.613312

>  <RMSD>
13.491

$$$$
ligand
 OpenBabel11021811503D
libRbt.so/2013.1/901 2013/11/27
 12 13  0  0  0  0  0  0  0  0999 V2000
   -5.6528   10.8898   -0.4056 C   0  0  0  0  0  0  0  0  0  0  0  0
   -7.1831   12.4065    0.4847 C   0  0  0  0  0  0  0  0  0  0  0  0
   -5.3384    9.6339   -0.7103 N   0  0  0  0  0  0  0  0  0  0  0  0
   -8.3384   12.7067    1.0881 N   0  0  0  0  0  0  0  0  0  0  0  0
   -6.8367   11.1458    0.1927 N   0  0  0  0  0  0  0  0  0  0  0  0
   -4.7992   11.8887   -0.7224 N   0  0  0  0  0  0  0  0  0  0  0  0
   -5.7679   15.8082    0.1797 N   0  0  0  0  0  0  0  0  0  0  0  0
   -4.5493   15.5045   -0.4466 C   0  0  0  0  0  0  0  0  0  0  0  0
   -4.2221   14.1607   -0.7428 N   0  0  0  0  0  0  0  0  0  0  0  0
   -5.0995   13.1804   -0.4374 C   0  0  0  0  0  0  0  0  0  0  0  0
   -6.3229   13.4676    0.1765 C   0  0  0  0  0  0  0  0  0  0  0  0
   -6.6760   14.7778    0.4941 C   0  0  0  0  0  0  0  0  0  0  0  0
  1  3  1  0  0  0  0
  1  5  1  0  0  0  0
  1  6  2  0  0  0  0
  2  5  2  0  0  0  0
  2 11  1  0  0  0  0
  2  4  1  0  0  0  0
  6 10  1  0  0  0  0
  7  8  2  0  0  0  0
  7 12  1  0  0  0  0
  8  9  1  0  0  0  0
  9 10  2  0  0  0  0
 10 11  1  0  0  0  0
 11 12  2  0  0  0  0
M  END
>  <CHROM.1>
-5.89770136,12.93299148,-0.07450050,-1.72763368,0.44816724,0.10830868

>  <Name>
ligand

>  <RI>
0

>  <Rbt.Current_Directory>
/home/itssahil/PROJECTS/Mol_Feturizer/New_Systems/rnas/4LX5

>  <Rbt.Executable>
rbdock ($Id: //depot/dev/client3/rdock/2013.1/src/exe/rbdock.cxx#4 $)

>  <Rbt.Library>
libRbt.so (2013.1, Build901 2013/11/27)

>  <Rbt.Parameter_File>
/export/apps/rDock/src/rDock_2013.1_src/data/scripts/dock_solv.prm

>  <Rbt.Receptor>
prm/blind_docking_20.prm

>  <SCORE>
-7.31161

>  <SCORE.INTER>
-7.31161

>  <SCORE.INTER.CONST>
1

>  <SCORE.INTER.POLAR>
0

>  <SCORE.INTER.ROT>
0

>  <SCORE.INTER.SOLV>
10.7212

>  <SCORE.INTER.VDW>
-12.0481

>  <SCORE.INTER.norm>
-0.609301

>  <SCORE.INTRA>
0

>  <SCORE.INTRA.DIHEDRAL>
0

>  <SCORE.INTRA.DIHEDRAL.0>
0

>  <SCORE.INTRA.POLAR>
0

>  <SCORE.INTRA.POLAR.0>
0

>  <SCORE.INTRA.REPUL>
0

>  <SCORE.INTRA.REPUL.0>
0

>  <SCORE.INTRA.SOLV>
0

>  <SCORE.INTRA.SOLV.lig_0>
-48.1583

>  <SCORE.INTRA.VDW>
0

>  <SCORE.INTRA.VDW.0>
0

>  <SCORE.INTRA.norm>
0

>  <SCORE.RESTR>
0

>  <SCORE.RESTR.CAVITY>
0

>  <SCORE.RESTR.norm>
0

>  <SCORE.SYSTEM>
0

>  <SCORE.SYSTEM.CONST>
0

>  <SCORE.SYSTEM.DIHEDRAL>
0

>  <SCORE.SYSTEM.SOLV>
0

>  <SCORE.SYSTEM.norm>
0

>  <SCORE.heavy>
12

>  <SCORE.norm>
-0.609301

>  <RMSD>
13.492

$$$$
ligand
 OpenBabel11021811503D
libRbt.so/2013.1/901 2013/11/27
 12 13  0  0  0  0  0  0  0  0999 V2000
   -5.7085   10.9431   -0.3605 C   0  0  0  0  0  0  0  0  0  0  0  0
   -7.2051   12.4747    0.5612 C   0  0  0  0  0  0  0  0  0  0  0  0
   -5.4120    9.6840   -0.6696 N   0  0  0  0  0  0  0  0  0  0  0  0
   -8.3437   12.7860    1.1902 N   0  0  0  0  0  0  0  0  0  0  0  0
   -6.8763   11.2104    0.2640 N   0  0  0  0  0  0  0  0  0  0  0  0
   -4.8539   11.9340   -0.6988 N   0  0  0  0  0  0  0  0  0  0  0  0
   -5.7681   15.8635    0.2168 N   0  0  0  0  0  0  0  0  0  0  0  0
   -4.5667   15.5480   -0.4365 C   0  0  0  0  0  0  0  0  0  0  0  0
   -4.2579   14.2008   -0.7372 N   0  0  0  0  0  0  0  0  0  0  0  0
   -5.1365   13.2288   -0.4098 C   0  0  0  0  0  0  0  0  0  0  0  0
   -6.3431   13.5277    0.2312 C   0  0  0  0  0  0  0  0  0  0  0  0
   -6.6776   14.8416    0.5540 C   0  0  0  0  0  0  0  0  0  0  0  0
  1  3  1  0  0  0  0
  1  5  1  0  0  0  0
  1  6  2  0  0  0  0
  2  5  2  0  0  0  0
  2 11  1  0  0  0  0
  2  4  1  0  0  0  0
  6 10  1  0  0  0  0
  7  8  2  0  0  0  0
  7 12  1  0  0  0  0
  8  9  1  0  0  0  0
  9 10  2  0  0  0  0
 10 11  1  0  0  0  0
 11 12  2  0  0  0  0
M  END
>  <CHROM.1>
-5.92830569,12.98897766,-0.02825060,-1.73997589,0.46988418,0.11174454

>  <Name>
ligand

>  <RI>
0

>  <Rbt.Current_Directory>
/home/itssahil/PROJECTS/Mol_Feturizer/New_Systems/rnas/4LX5

>  <Rbt.Executable>
rbdock ($Id: //depot/dev/client3/rdock/2013.1/src/exe/rbdock.cxx#4 $)

>  <Rbt.Library>
libRbt.so (2013.1, Build901 2013/11/27)

>  <Rbt.Parameter_File>
/export/apps/rDock/src/rDock_2013.1_src/data/scripts/dock_solv.prm

>  <Rbt.Receptor>
prm/blind_docking_20.prm

>  <SCORE>
-7.37645

>  <SCORE.INTER>
-7.37645

>  <SCORE.INTER.CONST>
1

>  <SCORE.INTER.POLAR>
0

>  <SCORE.INTER.ROT>
0

>  <SCORE.INTER.SOLV>
10.4444

>  <SCORE.INTER.VDW>
-11.9991

>  <SCORE.INTER.norm>
-0.614704

>  <SCORE.INTRA>
0

>  <SCORE.INTRA.DIHEDRAL>
0

>  <SCORE.INTRA.DIHEDRAL.0>
0

>  <SCORE.INTRA.POLAR>
0

>  <SCORE.INTRA.POLAR.0>
0

>  <SCORE.INTRA.REPUL>
0

>  <SCORE.INTRA.REPUL.0>
0

>  <SCORE.INTRA.SOLV>
0

>  <SCORE.INTRA.SOLV.lig_0>
-48.1583

>  <SCORE.INTRA.VDW>
0

>  <SCORE.INTRA.VDW.0>
0

>  <SCORE.INTRA.norm>
0

>  <SCORE.RESTR>
0

>  <SCORE.RESTR.CAVITY>
0

>  <SCORE.RESTR.norm>
0

>  <SCORE.SYSTEM>
0

>  <SCORE.SYSTEM.CONST>
0

>  <SCORE.SYSTEM.DIHEDRAL>
0

>  <SCORE.SYSTEM.SOLV>
0

>  <SCORE.SYSTEM.norm>
0

>  <SCORE.heavy>
12

>  <SCORE.norm>
-0.614704

>  <RMSD>
13.493

$$$$
ligand
 OpenBabel11021811503D
libRbt.so/2013.1/901 2013/11/27
 12 13  0  0  0  0  0  0  0  0999 V2000
   -5.7386   10.9128   -0.3399 C   0  0  0  0  0  0  0  0  0  0  0  0
   -7.2313   12.4792    0.5279 C   0  0  0  0  0  0  0  0  0  0  0  0
   -5.4558    9.6455   -0.6277 N   0  0  0  0  0  0  0  0  0  0  0  0
   -8.3796   12.8164    1.1252 N   0  0  0  0  0  0  0  0  0  0  0  0
   -6.9166   11.2064    0.2528 N   0  0  0  0  0  0  0  0  0  0  0  0
   -4.8594   11.8855   -0.6679 N   0  0  0  0  0  0  0  0  0  0  0  0
   -5.7296   15.8397    0.1818 N   0  0  0  0  0  0  0  0  0  0  0  0
   -4.5181   15.4970   -0.4383 C   0  0  0  0  0  0  0  0  0  0  0  0
   -4.2247   14.1416   -0.7164 N   0  0  0  0  0  0  0  0  0  0  0  0
   -5.1272   13.1880   -0.4001 C   0  0  0  0  0  0  0  0  0  0  0  0
   -6.3439   13.5141    0.2077 C   0  0  0  0  0  0  0  0  0  0  0  0
   -6.6641   14.8369    0.5076 C   0  0  0  0  0  0  0  0  0  0  0  0
  1  3  1  0  0  0  0
  1  5  1  0  0  0  0
  1  6  2  0  0  0  0
  2  5  2  0  0  0  0
  2 11  1  0  0  0  0
  2  4  1  0  0  0  0
  6 10  1  0  0  0  0
  7  8  2  0  0  0  0
  7 12  1  0  0  0  0
  8  9  1  0  0  0  0
  9 10  2  0  0  0  0
 10 11  1  0  0  0  0
 11 12  2  0  0  0  0
M  END
>  <CHROM.1>
-5.93202701,12.96563979,-0.03558171,-1.75543619,0.44368721,0.10738095

>  <Name>
ligand

>  <RI>
0

>  <Rbt.Current_Directory>
/home/itssahil/PROJECTS/Mol_Feturizer/New_Systems/rnas/4LX5

>  <Rbt.Executable>
rbdock ($Id: //depot/dev/client3/rdock/2013.1/src/exe/rbdock.cxx#4 $)

>  <Rbt.Library>
libRbt.so (2013.1, Build901 2013/11/27)

>  <Rbt.Parameter_File>
/export/apps/rDock/src/rDock_2013.1_src/data/scripts/dock_solv.prm

>  <Rbt.Receptor>
prm/blind_docking_20.prm

>  <SCORE>
-7.35025

>  <SCORE.INTER>
-7.35025

>  <SCORE.INTER.CONST>
1

>  <SCORE.INTER.POLAR>
0

>  <SCORE.INTER.ROT>
0

>  <SCORE.INTER.SOLV>
10.5661

>  <SCORE.INTER.VDW>
-12.0222

>  <SCORE.INTER.norm>
-0.612521

>  <SCORE.INTRA>
0

>  <SCORE.INTRA.DIHEDRAL>
0

>  <SCORE.INTRA.DIHEDRAL.0>
0

>  <SCORE.INTRA.POLAR>
0

>  <SCORE.INTRA.POLAR.0>
0

>  <SCORE.INTRA.REPUL>
0

>  <SCORE.INTRA.REPUL.0>
0

>  <SCORE.INTRA.SOLV>
0

>  <SCORE.INTRA.SOLV.lig_0>
-48.1583

>  <SCORE.INTRA.VDW>
0

>  <SCORE.INTRA.VDW.0>
0

>  <SCORE.INTRA.norm>
0

>  <SCORE.RESTR>
0

>  <SCORE.RESTR.CAVITY>
0

>  <SCORE.RESTR.norm>
0

>  <SCORE.SYSTEM>
0

>  <SCORE.SYSTEM.CONST>
0

>  <SCORE.SYSTEM.DIHEDRAL>
0

>  <SCORE.SYSTEM.SOLV>
0

>  <SCORE.SYSTEM.norm>
0

>  <SCORE.heavy>
12

>  <SCORE.norm>
-0.612521

>  <RMSD>
13.509

$$$$
ligand
 OpenBabel11021811503D
libRbt.so/2013.1/901 2013/11/27
 12 13  0  0  0  0  0  0  0  0999 V2000
   -5.8113   10.8787   -0.3060 C   0  0  0  0  0  0  0  0  0  0  0  0
   -7.2642   12.4956    0.5365 C   0  0  0  0  0  0  0  0  0  0  0  0
   -5.5614    9.6006   -0.5758 N   0  0  0  0  0  0  0  0  0  0  0  0
   -8.4046   12.8710    1.1260 N   0  0  0  0  0  0  0  0  0  0  0  0
   -6.9825   11.2113    0.2795 N   0  0  0  0  0  0  0  0  0  0  0  0
   -4.9061   11.8234   -0.6448 N   0  0  0  0  0  0  0  0  0  0  0  0
   -5.6737   15.8103    0.1488 N   0  0  0  0  0  0  0  0  0  0  0  0
   -4.4702   15.4275   -0.4633 C   0  0  0  0  0  0  0  0  0  0  0  0
   -4.2120   14.0611   -0.7223 N   0  0  0  0  0  0  0  0  0  0  0  0
   -5.1401   13.1360   -0.3954 C   0  0  0  0  0  0  0  0  0  0  0  0
   -6.3491   13.5022    0.2046 C   0  0  0  0  0  0  0  0  0  0  0  0
   -6.6351   14.8370    0.4857 C   0  0  0  0  0  0  0  0  0  0  0  0
  1  3  1  0  0  0  0
  1  5  1  0  0  0  0
  1  6  2  0  0  0  0
  2  5  2  0  0  0  0
  2 11  1  0  0  0  0
  2  4  1  0  0  0  0
  6 10  1  0  0  0  0
  7  8  2  0  0  0  0
  7 12  1  0  0  0  0
  8  9  1  0  0  0  0
  9 10  2  0  0  0  0
 10 11  1  0  0  0  0
 11 12  2  0  0  0  0
M  END
>  <CHROM.1>
-5.95130605,12.93989600,-0.03008247,-1.78410169,0.43840440,0.10600402

>  <Name>
ligand

>  <RI>
0

>  <Rbt.Current_Directory>
/home/itssahil/PROJECTS/Mol_Feturizer/New_Systems/rnas/4LX5

>  <Rbt.Executable>
rbdock ($Id: //depot/dev/client3/rdock/2013.1/src/exe/rbdock.cxx#4 $)

>  <Rbt.Library>
libRbt.so (2013.1, Build901 2013/11/27)

>  <Rbt.Parameter_File>
/export/apps/rDock/src/rDock_2013.1_src/data/scripts/dock_solv.prm

>  <Rbt.Receptor>
prm/blind_docking_20.prm

>  <SCORE>
-7.3722

>  <SCORE.INTER>
-7.3722

>  <SCORE.INTER.CONST>
1

>  <SCORE.INTER.POLAR>
0

>  <SCORE.INTER.ROT>
0

>  <SCORE.INTER.SOLV>
10.6344

>  <SCORE.INTER.VDW>
-12.0596

>  <SCORE.INTER.norm>
-0.61435

>  <SCORE.INTRA>
0

>  <SCORE.INTRA.DIHEDRAL>
0

>  <SCORE.INTRA.DIHEDRAL.0>
0

>  <SCORE.INTRA.POLAR>
0

>  <SCORE.INTRA.POLAR.0>
0

>  <SCORE.INTRA.REPUL>
0

>  <SCORE.INTRA.REPUL.0>
0

>  <SCORE.INTRA.SOLV>
0

>  <SCORE.INTRA.SOLV.lig_0>
-48.1583

>  <SCORE.INTRA.VDW>
0

>  <SCORE.INTRA.VDW.0>
0

>  <SCORE.INTRA.norm>
0

>  <SCORE.RESTR>
0

>  <SCORE.RESTR.CAVITY>
0

>  <SCORE.RESTR.norm>
0

>  <SCORE.SYSTEM>
0

>  <SCORE.SYSTEM.CONST>
0

>  <SCORE.SYSTEM.DIHEDRAL>
0

>  <SCORE.SYSTEM.SOLV>
0

>  <SCORE.SYSTEM.norm>
0

>  <SCORE.heavy>
12

>  <SCORE.norm>
-0.61435

>  <RMSD>
13.540

$$$$
ligand
 OpenBabel11021811503D
libRbt.so/2013.1/901 2013/11/27
 12 13  0  0  0  0  0  0  0  0999 V2000
   -5.8112   10.9112   -0.3164 C   0  0  0  0  0  0  0  0  0  0  0  0
   -7.2774   12.4948    0.5652 C   0  0  0  0  0  0  0  0  0  0  0  0
   -5.5450    9.6405   -0.6049 N   0  0  0  0  0  0  0  0  0  0  0  0
   -8.4153   12.8451    1.1748 N   0  0  0  0  0  0  0  0  0  0  0  0
   -6.9792   11.2183    0.2890 N   0  0  0  0  0  0  0  0  0  0  0  0
   -4.9256   11.8740   -0.6562 N   0  0  0  0  0  0  0  0  0  0  0  0
   -5.7447   15.8387    0.1956 N   0  0  0  0  0  0  0  0  0  0  0  0
   -4.5440   15.4822   -0.4375 C   0  0  0  0  0  0  0  0  0  0  0  0
   -4.2680   14.1233   -0.7163 N   0  0  0  0  0  0  0  0  0  0  0  0
   -5.1767   13.1797   -0.3879 C   0  0  0  0  0  0  0  0  0  0  0  0
   -6.3830   13.5197    0.2329 C   0  0  0  0  0  0  0  0  0  0  0  0
   -6.6859   14.8463    0.5340 C   0  0  0  0  0  0  0  0  0  0  0  0
  1  3  1  0  0  0  0
  1  5  1  0  0  0  0
  1  6  2  0  0  0  0
  2  5  2  0  0  0  0
  2 11  1  0  0  0  0
  2  4  1  0  0  0  0
  6 10  1  0  0  0  0
  7  8  2  0  0  0  0
  7 12  1  0  0  0  0
  8  9  1  0  0  0  0
  9 10  2  0  0  0  0
 10 11  1  0  0  0  0
 11 12  2  0  0  0  0
M  END
>  <CHROM.1>
-5.97965956,12.96653221,-0.01388489,-1.76837030,0.45381696,0.11111190

>  <Name>
ligand

>  <RI>
0

>  <Rbt.Current_Directory>
/home/itssahil/PROJECTS/Mol_Feturizer/New_Systems/rnas/4LX5

>  <Rbt.Executable>
rbdock ($Id: //depot/dev/client3/rdock/2013.1/src/exe/rbdock.cxx#4 $)

>  <Rbt.Library>
libRbt.so (2013.1, Build901 2013/11/27)

>  <Rbt.Parameter_File>
/export/apps/rDock/src/rDock_2013.1_src/data/scripts/dock_solv.prm

>  <Rbt.Receptor>
prm/blind_docking_20.prm

>  <SCORE>
-7.35229

>  <SCORE.INTER>
-7.35229

>  <SCORE.INTER.CONST>
1

>  <SCORE.INTER.POLAR>
0

>  <SCORE.INTER.ROT>
0

>  <SCORE.INTER.SOLV>
10.6276

>  <SCORE.INTER.VDW>
-12.0441

>  <SCORE.INTER.norm>
-0.612691

>  <SCORE.INTRA>
0

>  <SCORE.INTRA.DIHEDRAL>
0

>  <SCORE.INTRA.DIHEDRAL.0>
0

>  <SCORE.INTRA.POLAR>
0

>  <SCORE.INTRA.POLAR.0>
0

>  <SCORE.INTRA.REPUL>
0

>  <SCORE.INTRA.REPUL.0>
0

>  <SCORE.INTRA.SOLV>
0

>  <SCORE.INTRA.SOLV.lig_0>
-48.1583

>  <SCORE.INTRA.VDW>
0

>  <SCORE.INTRA.VDW.0>
0

>  <SCORE.INTRA.norm>
0

>  <SCORE.RESTR>
0

>  <SCORE.RESTR.CAVITY>
0

>  <SCORE.RESTR.norm>
0

>  <SCORE.SYSTEM>
0

>  <SCORE.SYSTEM.CONST>
0

>  <SCORE.SYSTEM.DIHEDRAL>
0

>  <SCORE.SYSTEM.SOLV>
0

>  <SCORE.SYSTEM.norm>
0

>  <SCORE.heavy>
12

>  <SCORE.norm>
-0.612691

>  <RMSD>
13.548

$$$$
ligand
 OpenBabel11021811503D
libRbt.so/2013.1/901 2013/11/27
 12 13  0  0  0  0  0  0  0  0999 V2000
   -5.8046   10.8949   -0.3002 C   0  0  0  0  0  0  0  0  0  0  0  0
   -7.2790   12.4881    0.5499 C   0  0  0  0  0  0  0  0  0  0  0  0
   -5.5359    9.6212   -0.5726 N   0  0  0  0  0  0  0  0  0  0  0  0
   -8.4228   12.8451    1.1443 N   0  0  0  0  0  0  0  0  0  0  0  0
   -6.9785   11.2087    0.2903 N   0  0  0  0  0  0  0  0  0  0  0  0
   -4.9154   11.8539   -0.6414 N   0  0  0  0  0  0  0  0  0  0  0  0
   -5.7416   15.8275    0.1600 N   0  0  0  0  0  0  0  0  0  0  0  0
   -4.5347   15.4641   -0.4572 C   0  0  0  0  0  0  0  0  0  0  0  0
   -4.2564   14.1022   -0.7188 N   0  0  0  0  0  0  0  0  0  0  0  0
   -5.1687   13.1624   -0.3895 C   0  0  0  0  0  0  0  0  0  0  0  0
   -6.3810   13.5092    0.2156 C   0  0  0  0  0  0  0  0  0  0  0  0
   -6.6864   14.8390    0.4995 C   0  0  0  0  0  0  0  0  0  0  0  0
  1  3  1  0  0  0  0
  1  5  1  0  0  0  0
  1  6  2  0  0  0  0
  2  5  2  0  0  0  0
  2 11  1  0  0  0  0
  2  4  1  0  0  0  0
  6 10  1  0  0  0  0
  7  8  2  0  0  0  0
  7 12  1  0  0  0  0
  8  9  1  0  0  0  0
  9 10  2  0  0  0  0
 10 11  1  0  0  0  0
 11 12  2  0  0  0  0
M  END
>  <CHROM.1>
-5.97537555,12.95337762,-0.02125589,-1.76750443,0.44388493,0.10011116

>  <Name>
ligand

>  <RI>
0

>  <Rbt.Current_Directory>
/home/itssahil/PROJECTS/Mol_Feturizer/New_Systems/rnas/4LX5

>  <Rbt.Executable>
rbdock ($Id: //depot/dev/client3/rdock/2013.1/src/exe/rbdock.cxx#4 $)

>  <Rbt.Library>
libRbt.so (2013.1, Build901 2013/11/27)

>  <Rbt.Parameter_File>
/export/apps/rDock/src/rDock_2013.1_src/data/scripts/dock_solv.prm

>  <Rbt.Receptor>
prm/blind_docking_20.prm

>  <SCORE>
-7.39306

>  <SCORE.INTER>
-7.39306

>  <SCORE.INTER.CONST>
1

>  <SCORE.INTER.POLAR>
0

>  <SCORE.INTER.ROT>
0

>  <SCORE.INTER.SOLV>
10.5488

>  <SCORE.INTER.VDW>
-12.045

>  <SCORE.INTER.norm>
-0.616089

>  <SCORE.INTRA>
0

>  <SCORE.INTRA.DIHEDRAL>
0

>  <SCORE.INTRA.DIHEDRAL.0>
0

>  <SCORE.INTRA.POLAR>
0

>  <SCORE.INTRA.POLAR.0>
0

>  <SCORE.INTRA.REPUL>
0

>  <SCORE.INTRA.REPUL.0>
0

>  <SCORE.INTRA.SOLV>
0

>  <SCORE.INTRA.SOLV.lig_0>
-48.1583

>  <SCORE.INTRA.VDW>
0

>  <SCORE.INTRA.VDW.0>
0

>  <SCORE.INTRA.norm>
0

>  <SCORE.RESTR>
0

>  <SCORE.RESTR.CAVITY>
0

>  <SCORE.RESTR.norm>
0

>  <SCORE.SYSTEM>
0

>  <SCORE.SYSTEM.CONST>
0

>  <SCORE.SYSTEM.DIHEDRAL>
0

>  <SCORE.SYSTEM.SOLV>
0

>  <SCORE.SYSTEM.norm>
0

>  <SCORE.heavy>
12

>  <SCORE.norm>
-0.616089

>  <RMSD>
13.553

$$$$
ligand
 OpenBabel11021811503D
libRbt.so/2013.1/901 2013/11/27
 12 13  0  0  0  0  0  0  0  0999 V2000
   -5.8078   10.8824   -0.3006 C   0  0  0  0  0  0  0  0  0  0  0  0
   -7.2783   12.4813    0.5454 C   0  0  0  0  0  0  0  0  0  0  0  0
   -5.5427    9.6074   -0.5708 N   0  0  0  0  0  0  0  0  0  0  0  0
   -8.4216   12.8428    1.1380 N   0  0  0  0  0  0  0  0  0  0  0  0
   -6.9814   11.2006    0.2880 N   0  0  0  0  0  0  0  0  0  0  0  0
   -4.9152   11.8380   -0.6422 N   0  0  0  0  0  0  0  0  0  0  0  0
   -5.7301   15.8154    0.1525 N   0  0  0  0  0  0  0  0  0  0  0  0
   -4.5236   15.4473   -0.4628 C   0  0  0  0  0  0  0  0  0  0  0  0
   -4.2492   14.0842   -0.7221 N   0  0  0  0  0  0  0  0  0  0  0  0
   -5.1648   13.1477   -0.3925 C   0  0  0  0  0  0  0  0  0  0  0  0
   -6.3767   13.4992    0.2107 C   0  0  0  0  0  0  0  0  0  0  0  0
   -6.6784   14.8303    0.4923 C   0  0  0  0  0  0  0  0  0  0  0  0
  1  3  1  0  0  0  0
  1  5  1  0  0  0  0
  1  6  2  0  0  0  0
  2  5  2  0  0  0  0
  2 11  1  0  0  0  0
  2  4  1  0  0  0  0
  6 10  1  0  0  0  0
  7  8  2  0  0  0  0
  7 12  1  0  0  0  0
  8  9  1  0  0  0  0
  9 10  2  0  0  0  0
 10 11  1  0  0  0  0
 11 12  2  0  0  0  0
M  END
>  <CHROM.1>
-5.97256219,12.94173569,-0.02489304,-1.77078314,0.44239900,0.10004773

>  <Name>
ligand

>  <RI>
0

>  <Rbt.Current_Directory>
/home/itssahil/PROJECTS/Mol_Feturizer/New_Systems/rnas/4LX5

>  <Rbt.Executable>
rbdock ($Id: //depot/dev/client3/rdock/2013.1/src/exe/rbdock.cxx#4 $)

>  <Rbt.Library>
libRbt.so (2013.1, Build901 2013/11/27)

>  <Rbt.Parameter_File>
/export/apps/rDock/src/rDock_2013.1_src/data/scripts/dock_solv.prm

>  <Rbt.Receptor>
prm/blind_docking_20.prm

>  <SCORE>
-7.38845

>  <SCORE.INTER>
-7.38845

>  <SCORE.INTER.CONST>
1

>  <SCORE.INTER.POLAR>
0

>  <SCORE.INTER.ROT>
0

>  <SCORE.INTER.SOLV>
10.5822

>  <SCORE.INTER.VDW>
-12.053

>  <SCORE.INTER.norm>
-0.615704

>  <SCORE.INTRA>
0

>  <SCORE.INTRA.DIHEDRAL>
0

>  <SCORE.INTRA.DIHEDRAL.0>
0

>  <SCORE.INTRA.POLAR>
0

>  <SCORE.INTRA.POLAR.0>
0

>  <SCORE.INTRA.REPUL>
0

>  <SCORE.INTRA.REPUL.0>
0

>  <SCORE.INTRA.SOLV>
0

>  <SCORE.INTRA.SOLV.lig_0>
-48.1583

>  <SCORE.INTRA.VDW>
0

>  <SCORE.INTRA.VDW.0>
0

>  <SCORE.INTRA.norm>
0

>  <SCORE.RESTR>
0

>  <SCORE.RESTR.CAVITY>
0

>  <SCORE.RESTR.norm>
0

>  <SCORE.SYSTEM>
0

>  <SCORE.SYSTEM.CONST>
0

>  <SCORE.SYSTEM.DIHEDRAL>
0

>  <SCORE.SYSTEM.SOLV>
0

>  <SCORE.SYSTEM.norm>
0

>  <SCORE.heavy>
12

>  <SCORE.norm>
-0.615704

>  <RMSD>
13.556

$$$$
ligand
 OpenBabel11021811503D
libRbt.so/2013.1/901 2013/11/27
 12 13  0  0  0  0  0  0  0  0999 V2000
   -5.8299   10.9003   -0.2936 C   0  0  0  0  0  0  0  0  0  0  0  0
   -7.2895   12.4983    0.5729 C   0  0  0  0  0  0  0  0  0  0  0  0
   -5.5691    9.6259   -0.5705 N   0  0  0  0  0  0  0  0  0  0  0  0
   -8.4261   12.8591    1.1787 N   0  0  0  0  0  0  0  0  0  0  0  0
   -6.9968   11.2180    0.3085 N   0  0  0  0  0  0  0  0  0  0  0  0
   -4.9400   11.8561   -0.6418 N   0  0  0  0  0  0  0  0  0  0  0  0
   -5.7419   15.8319    0.1736 N   0  0  0  0  0  0  0  0  0  0  0  0
   -4.5425   15.4644   -0.4557 C   0  0  0  0  0  0  0  0  0  0  0  0
   -4.2724   14.1018   -0.7220 N   0  0  0  0  0  0  0  0  0  0  0  0
   -5.1854   13.1653   -0.3855 C   0  0  0  0  0  0  0  0  0  0  0  0
   -6.3904   13.5162    0.2317 C   0  0  0  0  0  0  0  0  0  0  0  0
   -6.6876   14.8468    0.5205 C   0  0  0  0  0  0  0  0  0  0  0  0
  1  3  1  0  0  0  0
  1  5  1  0  0  0  0
  1  6  2  0  0  0  0
  2  5  2  0  0  0  0
  2 11  1  0  0  0  0
  2  4  1  0  0  0  0
  6 10  1  0  0  0  0
  7  8  2  0  0  0  0
  7 12  1  0  0  0  0
  8  9  1  0  0  0  0
  9 10  2  0  0  0  0
 10 11  1  0  0  0  0
 11 12  2  0  0  0  0
M  END
>  <CHROM.1>
-5.98944752,12.95902717,-0.00989642,-1.77317362,0.45290138,0.10411777

>  <Name>
ligand

>  <RI>
0

>  <Rbt.Current_Directory>
/home/itssahil/PROJECTS/Mol_Feturizer/New_Systems/rnas/4LX5

>  <Rbt.Executable>
rbdock ($Id: //depot/dev/client3/rdock/2013.1/src/exe/rbdock.cxx#4 $)

>  <Rbt.Library>
libRbt.so (2013.1, Build901 2013/11/27)

>  <Rbt.Parameter_File>
/export/apps/rDock/src/rDock_2013.1_src/data/scripts/dock_solv.prm

>  <Rbt.Receptor>
prm/blind_docking_20.prm

>  <SCORE>
-7.36484

>  <SCORE.INTER>
-7.36484

>  <SCORE.INTER.CONST>
1

>  <SCORE.INTER.POLAR>
0

>  <SCORE.INTER.ROT>
0

>  <SCORE.INTER.SOLV>
10.5516

>  <SCORE.INTER.VDW>
-12.0271

>  <SCORE.INTER.norm>
-0.613737

>  <SCORE.INTRA>
0

>  <SCORE.INTRA.DIHEDRAL>
0

>  <SCORE.INTRA.DIHEDRAL.0>
0

>  <SCORE.INTRA.POLAR>
0

>  <SCORE.INTRA.POLAR.0>
0

>  <SCORE.INTRA.REPUL>
0

>  <SCORE.INTRA.REPUL.0>
0

>  <SCORE.INTRA.SOLV>
0

>  <SCORE.INTRA.SOLV.lig_0>
-48.1583

>  <SCORE.INTRA.VDW>
0

>  <SCORE.INTRA.VDW.0>
0

>  <SCORE.INTRA.norm>
0

>  <SCORE.RESTR>
0

>  <SCORE.RESTR.CAVITY>
0

>  <SCORE.RESTR.norm>
0

>  <SCORE.SYSTEM>
0

>  <SCORE.SYSTEM.CONST>
0

>  <SCORE.SYSTEM.DIHEDRAL>
0

>  <SCORE.SYSTEM.SOLV>
0

>  <SCORE.SYSTEM.norm>
0

>  <SCORE.heavy>
12

>  <SCORE.norm>
-0.613737

>  <RMSD>
13.561

$$$$
ligand
 OpenBabel11021811503D
libRbt.so/2013.1/901 2013/11/27
 12 13  0  0  0  0  0  0  0  0999 V2000
   -5.7990   10.8832   -0.3042 C   0  0  0  0  0  0  0  0  0  0  0  0
   -7.2788   12.4616    0.5641 C   0  0  0  0  0  0  0  0  0  0  0  0
   -5.5231    9.6128   -0.5845 N   0  0  0  0  0  0  0  0  0  0  0  0
   -8.4208   12.8075    1.1685 N   0  0  0  0  0  0  0  0  0  0  0  0
   -6.9709   11.1856    0.2963 N   0  0  0  0  0  0  0  0  0  0  0  0
   -4.9193   11.8503   -0.6472 N   0  0  0  0  0  0  0  0  0  0  0  0
   -5.7686   15.8140    0.1790 N   0  0  0  0  0  0  0  0  0  0  0  0
   -4.5636   15.4623   -0.4486 C   0  0  0  0  0  0  0  0  0  0  0  0
   -4.2773   14.1037   -0.7187 N   0  0  0  0  0  0  0  0  0  0  0  0
   -5.1803   13.1557   -0.3873 C   0  0  0  0  0  0  0  0  0  0  0  0
   -6.3907   13.4908    0.2283 C   0  0  0  0  0  0  0  0  0  0  0  0
   -6.7037   14.8170    0.5207 C   0  0  0  0  0  0  0  0  0  0  0  0
  1  3  1  0  0  0  0
  1  5  1  0  0  0  0
  1  6  2  0  0  0  0
  2  5  2  0  0  0  0
  2 11  1  0  0  0  0
  2  4  1  0  0  0  0
  6 10  1  0  0  0  0
  7  8  2  0  0  0  0
  7 12  1  0  0  0  0
  8  9  1  0  0  0  0
  9 10  2  0  0  0  0
 10 11  1  0  0  0  0
 11 12  2  0  0  0  0
M  END
>  <CHROM.1>
-5.98278521,12.93906604,-0.01420716,-1.76026699,0.45182593,0.10169894

>  <Name>
ligand

>  <RI>
0

>  <Rbt.Current_Directory>
/home/itssahil/PROJECTS/Mol_Feturizer/New_Systems/rnas/4LX5

>  <Rbt.Executable>
rbdock ($Id: //depot/dev/client3/rdock/2013.1/src/exe/rbdock.cxx#4 $)

>  <Rbt.Library>
libRbt.so (2013.1, Build901 2013/11/27)

>  <Rbt.Parameter_File>
/export/apps/rDock/src/rDock_2013.1_src/data/scripts/dock_solv.prm

>  <Rbt.Receptor>
prm/blind_docking_20.prm

>  <SCORE>
-7.36279

>  <SCORE.INTER>
-7.36279

>  <SCORE.INTER.CONST>
1

>  <SCORE.INTER.POLAR>
0

>  <SCORE.INTER.ROT>
0

>  <SCORE.INTER.SOLV>
10.5699

>  <SCORE.INTER.VDW>
-12.0318

>  <SCORE.INTER.norm>
-0.613566

>  <SCORE.INTRA>
0

>  <SCORE.INTRA.DIHEDRAL>
0

>  <SCORE.INTRA.DIHEDRAL.0>
0

>  <SCORE.INTRA.POLAR>
0

>  <SCORE.INTRA.POLAR.0>
0

>  <SCORE.INTRA.REPUL>
0

>  <SCORE.INTRA.REPUL.0>
0

>  <SCORE.INTRA.SOLV>
0

>  <SCORE.INTRA.SOLV.lig_0>
-48.1583

>  <SCORE.INTRA.VDW>
0

>  <SCORE.INTRA.VDW.0>
0

>  <SCORE.INTRA.norm>
0

>  <SCORE.RESTR>
0

>  <SCORE.RESTR.CAVITY>
0

>  <SCORE.RESTR.norm>
0

>  <SCORE.SYSTEM>
0

>  <SCORE.SYSTEM.CONST>
0

>  <SCORE.SYSTEM.DIHEDRAL>
0

>  <SCORE.SYSTEM.SOLV>
0

>  <SCORE.SYSTEM.norm>
0

>  <SCORE.heavy>
12

>  <SCORE.norm>
-0.613566

>  <RMSD>
13.561

$$$$
ligand
 OpenBabel11021811503D
libRbt.so/2013.1/901 2013/11/27
 12 13  0  0  0  0  0  0  0  0999 V2000
   -5.8891   10.9542   -0.2535 C   0  0  0  0  0  0  0  0  0  0  0  0
   -7.3168   12.5852    0.6048 C   0  0  0  0  0  0  0  0  0  0  0  0
   -5.6518    9.6729   -0.5197 N   0  0  0  0  0  0  0  0  0  0  0  0
   -8.4441   12.9713    1.2124 N   0  0  0  0  0  0  0  0  0  0  0  0
   -7.0475   11.2976    0.3509 N   0  0  0  0  0  0  0  0  0  0  0  0
   -4.9844   11.8912   -0.6144 N   0  0  0  0  0  0  0  0  0  0  0  0
   -5.7134   15.8876    0.1678 N   0  0  0  0  0  0  0  0  0  0  0  0
   -4.5235   15.4936   -0.4634 C   0  0  0  0  0  0  0  0  0  0  0  0
   -4.2783   14.1241   -0.7184 N   0  0  0  0  0  0  0  0  0  0  0  0
   -5.2059   13.2067   -0.3692 C   0  0  0  0  0  0  0  0  0  0  0  0
   -6.4017   13.5841    0.2502 C   0  0  0  0  0  0  0  0  0  0  0  0
   -6.6745   14.9223    0.5280 C   0  0  0  0  0  0  0  0  0  0  0  0
  1  3  1  0  0  0  0
  1  5  1  0  0  0  0
  1  6  2  0  0  0  0
  2  5  2  0  0  0  0
  2 11  1  0  0  0  0
  2  4  1  0  0  0  0
  6 10  1  0  0  0  0
  7  8  2  0  0  0  0
  7 12  1  0  0  0  0
  8  9  1  0  0  0  0
  9 10  2  0  0  0  0
 10 11  1  0  0  0  0
 11 12  2  0  0  0  0
M  END
>  <CHROM.1>
-6.01160369,13.01789658,0.01193928,-1.79292593,0.45565464,0.10359905

>  <Name>
ligand

>  <RI>
0

>  <Rbt.Current_Directory>
/home/itssahil/PROJECTS/Mol_Feturizer/New_Systems/rnas/4LX5

>  <Rbt.Executable>
rbdock ($Id: //depot/dev/client3/rdock/2013.1/src/exe/rbdock.cxx#4 $)

>  <Rbt.Library>
libRbt.so (2013.1, Build901 2013/11/27)

>  <Rbt.Parameter_File>
/export/apps/rDock/src/rDock_2013.1_src/data/scripts/dock_solv.prm

>  <Rbt.Receptor>
prm/blind_docking_20.prm

>  <SCORE>
-7.36946

>  <SCORE.INTER>
-7.36946

>  <SCORE.INTER.CONST>
1

>  <SCORE.INTER.POLAR>
0

>  <SCORE.INTER.ROT>
0

>  <SCORE.INTER.SOLV>
10.3562

>  <SCORE.INTER.VDW>
-11.9651

>  <SCORE.INTER.norm>
-0.614122

>  <SCORE.INTRA>
0

>  <SCORE.INTRA.DIHEDRAL>
0

>  <SCORE.INTRA.DIHEDRAL.0>
0

>  <SCORE.INTRA.POLAR>
0

>  <SCORE.INTRA.POLAR.0>
0

>  <SCORE.INTRA.REPUL>
0

>  <SCORE.INTRA.REPUL.0>
0

>  <SCORE.INTRA.SOLV>
0

>  <SCORE.INTRA.SOLV.lig_0>
-48.1583

>  <SCORE.INTRA.VDW>
0

>  <SCORE.INTRA.VDW.0>
0

>  <SCORE.INTRA.norm>
0

>  <SCORE.RESTR>
0

>  <SCORE.RESTR.CAVITY>
0

>  <SCORE.RESTR.norm>
0

>  <SCORE.SYSTEM>
0

>  <SCORE.SYSTEM.CONST>
0

>  <SCORE.SYSTEM.DIHEDRAL>
0

>  <SCORE.SYSTEM.SOLV>
0

>  <SCORE.SYSTEM.norm>
0

>  <SCORE.heavy>
12

>  <SCORE.norm>
-0.614122

>  <RMSD>
13.562

$$$$
ligand
 OpenBabel11021811503D
libRbt.so/2013.1/901 2013/11/27
 12 13  0  0  0  0  0  0  0  0999 V2000
   -5.8479   10.9024   -0.3016 C   0  0  0  0  0  0  0  0  0  0  0  0
   -7.2936   12.5003    0.5882 C   0  0  0  0  0  0  0  0  0  0  0  0
   -5.5937    9.6286   -0.5872 N   0  0  0  0  0  0  0  0  0  0  0  0
   -8.4225   12.8614    1.2080 N   0  0  0  0  0  0  0  0  0  0  0  0
   -7.0074   11.2205    0.3146 N   0  0  0  0  0  0  0  0  0  0  0  0
   -4.9592   11.8574   -0.6550 N   0  0  0  0  0  0  0  0  0  0  0  0
   -5.7413   15.8315    0.1875 N   0  0  0  0  0  0  0  0  0  0  0  0
   -4.5498   15.4637   -0.4565 C   0  0  0  0  0  0  0  0  0  0  0  0
   -4.2864   14.1016   -0.7321 N   0  0  0  0  0  0  0  0  0  0  0  0
   -5.1983   13.1660   -0.3900 C   0  0  0  0  0  0  0  0  0  0  0  0
   -6.3955   13.5173    0.2419 C   0  0  0  0  0  0  0  0  0  0  0  0
   -6.6859   14.8474    0.5402 C   0  0  0  0  0  0  0  0  0  0  0  0
  1  3  1  0  0  0  0
  1  5  1  0  0  0  0
  1  6  2  0  0  0  0
  2  5  2  0  0  0  0
  2 11  1  0  0  0  0
  2  4  1  0  0  0  0
  6 10  1  0  0  0  0
  7  8  2  0  0  0  0
  7 12  1  0  0  0  0
  8  9  1  0  0  0  0
  9 10  2  0  0  0  0
 10 11  1  0  0  0  0
 11 12  2  0  0  0  0
M  END
>  <CHROM.1>
-5.99871556,12.96021123,-0.00659159,-1.77751743,0.46344415,0.11069388

>  <Name>
ligand

>  <RI>
0

>  <Rbt.Current_Directory>
/home/itssahil/PROJECTS/Mol_Feturizer/New_Systems/rnas/4LX5

>  <Rbt.Executable>
rbdock ($Id: //depot/dev/client3/rdock/2013.1/src/exe/rbdock.cxx#4 $)

>  <Rbt.Library>
libRbt.so (2013.1, Build901 2013/11/27)

>  <Rbt.Parameter_File>
/export/apps/rDock/src/rDock_2013.1_src/data/scripts/dock_solv.prm

>  <Rbt.Receptor>
prm/blind_docking_40.prm

>  <SCORE>
-7.35003

>  <SCORE.INTER>
-7.35003

>  <SCORE.INTER.CONST>
1

>  <SCORE.INTER.POLAR>
0

>  <SCORE.INTER.ROT>
0

>  <SCORE.INTER.SOLV>
10.609

>  <SCORE.INTER.VDW>
-12.0364

>  <SCORE.INTER.norm>
-0.612503

>  <SCORE.INTRA>
0

>  <SCORE.INTRA.DIHEDRAL>
0

>  <SCORE.INTRA.DIHEDRAL.0>
0

>  <SCORE.INTRA.POLAR>
0

>  <SCORE.INTRA.POLAR.0>
0

>  <SCORE.INTRA.REPUL>
0

>  <SCORE.INTRA.REPUL.0>
0

>  <SCORE.INTRA.SOLV>
0

>  <SCORE.INTRA.SOLV.lig_0>
-48.1583

>  <SCORE.INTRA.VDW>
0

>  <SCORE.INTRA.VDW.0>
0

>  <SCORE.INTRA.norm>
0

>  <SCORE.RESTR>
0

>  <SCORE.RESTR.CAVITY>
0

>  <SCORE.RESTR.norm>
0

>  <SCORE.SYSTEM>
0

>  <SCORE.SYSTEM.CONST>
0

>  <SCORE.SYSTEM.DIHEDRAL>
0

>  <SCORE.SYSTEM.SOLV>
0

>  <SCORE.SYSTEM.norm>
0

>  <SCORE.heavy>
12

>  <SCORE.norm>
-0.612503

>  <RMSD>
13.568

$$$$
ligand
 OpenBabel11021811503D
libRbt.so/2013.1/901 2013/11/27
 12 13  0  0  0  0  0  0  0  0999 V2000
   -5.8125   10.7852   -0.1489 C   0  0  0  0  0  0  0  0  0  0  0  0
   -7.2751   12.4612    0.5487 C   0  0  0  0  0  0  0  0  0  0  0  0
   -5.5659    9.4911   -0.3316 N   0  0  0  0  0  0  0  0  0  0  0  0
   -8.4287   12.8804    1.0801 N   0  0  0  0  0  0  0  0  0  0  0  0
   -6.9972   11.1616    0.3802 N   0  0  0  0  0  0  0  0  0  0  0  0
   -4.8897   11.7007   -0.5189 N   0  0  0  0  0  0  0  0  0  0  0  0
   -5.6454   15.7345    0.0032 N   0  0  0  0  0  0  0  0  0  0  0  0
   -4.4281   15.3061   -0.5483 C   0  0  0  0  0  0  0  0  0  0  0  0
   -4.1743   13.9245   -0.7144 N   0  0  0  0  0  0  0  0  0  0  0  0
   -5.1194   13.0279   -0.3583 C   0  0  0  0  0  0  0  0  0  0  0  0
   -6.3421   13.4390    0.1821 C   0  0  0  0  0  0  0  0  0  0  0  0
   -6.6245   14.7906    0.3714 C   0  0  0  0  0  0  0  0  0  0  0  0
  1  3  1  0  0  0  0
  1  5  1  0  0  0  0
  1  6  2  0  0  0  0
  2  5  2  0  0  0  0
  2 11  1  0  0  0  0
  2  4  1  0  0  0  0
  6 10  1  0  0  0  0
  7  8  2  0  0  0  0
  7 12  1  0  0  0  0
  8  9  1  0  0  0  0
  9 10  2  0  0  0  0
 10 11  1  0  0  0  0
 11 12  2  0  0  0  0
M  END
>  <CHROM.1>
-5.94254510,12.86044687,-0.00552191,-1.79015513,0.40873797,0.04636738

>  <Name>
ligand

>  <RI>
0

>  <Rbt.Current_Directory>
/home/itssahil/PROJECTS/Mol_Feturizer/New_Systems/rnas/4LX5

>  <Rbt.Executable>
rbdock ($Id: //depot/dev/client3/rdock/2013.1/src/exe/rbdock.cxx#4 $)

>  <Rbt.Library>
libRbt.so (2013.1, Build901 2013/11/27)

>  <Rbt.Parameter_File>
/export/apps/rDock/src/rDock_2013.1_src/data/scripts/dock_solv.prm

>  <Rbt.Receptor>
prm/blind_docking_20.prm

>  <SCORE>
-7.34477

>  <SCORE.INTER>
-7.34477

>  <SCORE.INTER.CONST>
1

>  <SCORE.INTER.POLAR>
0

>  <SCORE.INTER.ROT>
0

>  <SCORE.INTER.SOLV>
9.92688

>  <SCORE.INTER.VDW>
-11.8055

>  <SCORE.INTER.norm>
-0.612064

>  <SCORE.INTRA>
0

>  <SCORE.INTRA.DIHEDRAL>
0

>  <SCORE.INTRA.DIHEDRAL.0>
0

>  <SCORE.INTRA.POLAR>
0

>  <SCORE.INTRA.POLAR.0>
0

>  <SCORE.INTRA.REPUL>
0

>  <SCORE.INTRA.REPUL.0>
0

>  <SCORE.INTRA.SOLV>
0

>  <SCORE.INTRA.SOLV.lig_0>
-48.1583

>  <SCORE.INTRA.VDW>
0

>  <SCORE.INTRA.VDW.0>
0

>  <SCORE.INTRA.norm>
0

>  <SCORE.RESTR>
0

>  <SCORE.RESTR.CAVITY>
0

>  <SCORE.RESTR.norm>
0

>  <SCORE.SYSTEM>
0

>  <SCORE.SYSTEM.CONST>
0

>  <SCORE.SYSTEM.DIHEDRAL>
0

>  <SCORE.SYSTEM.SOLV>
0

>  <SCORE.SYSTEM.norm>
0

>  <SCORE.heavy>
12

>  <SCORE.norm>
-0.612064

>  <RMSD>
13.569

$$$$
ligand
 OpenBabel11021811503D
libRbt.so/2013.1/901 2013/11/27
 12 13  0  0  0  0  0  0  0  0999 V2000
   -5.8971   10.9460   -0.2726 C   0  0  0  0  0  0  0  0  0  0  0  0
   -7.3199   12.5580    0.6286 C   0  0  0  0  0  0  0  0  0  0  0  0
   -5.6569    9.6695   -0.5584 N   0  0  0  0  0  0  0  0  0  0  0  0
   -8.4394   12.9300    1.2590 N   0  0  0  0  0  0  0  0  0  0  0  0
   -7.0475   11.2753    0.3545 N   0  0  0  0  0  0  0  0  0  0  0  0
   -5.0037   11.8926   -0.6366 N   0  0  0  0  0  0  0  0  0  0  0  0
   -5.7427   15.8749    0.2063 N   0  0  0  0  0  0  0  0  0  0  0  0
   -4.5610   15.4956   -0.4489 C   0  0  0  0  0  0  0  0  0  0  0  0
   -4.3122   14.1308   -0.7246 N   0  0  0  0  0  0  0  0  0  0  0  0
   -5.2287   13.2038   -0.3717 C   0  0  0  0  0  0  0  0  0  0  0  0
   -6.4165   13.5666    0.2715 C   0  0  0  0  0  0  0  0  0  0  0  0
   -6.6923   14.8996    0.5702 C   0  0  0  0  0  0  0  0  0  0  0  0
  1  3  1  0  0  0  0
  1  5  1  0  0  0  0
  1  6  2  0  0  0  0
  2  5  2  0  0  0  0
  2 11  1  0  0  0  0
  2  4  1  0  0  0  0
  6 10  1  0  0  0  0
  7  8  2  0  0  0  0
  7 12  1  0  0  0  0
  8  9  1  0  0  0  0
  9 10  2  0  0  0  0
 10 11  1  0  0  0  0
 11 12  2  0  0  0  0
M  END
>  <CHROM.1>
-6.02704295,13.00558231,0.02006552,-1.78845878,0.47240101,0.11383684

>  <Name>
ligand

>  <RI>
0

>  <Rbt.Current_Directory>
/home/itssahil/PROJECTS/Mol_Feturizer/New_Systems/rnas/4LX5

>  <Rbt.Executable>
rbdock ($Id: //depot/dev/client3/rdock/2013.1/src/exe/rbdock.cxx#4 $)

>  <Rbt.Library>
libRbt.so (2013.1, Build901 2013/11/27)

>  <Rbt.Parameter_File>
/export/apps/rDock/src/rDock_2013.1_src/data/scripts/dock_solv.prm

>  <Rbt.Receptor>
prm/blind_docking_20.prm

>  <SCORE>
-7.36036

>  <SCORE.INTER>
-7.36036

>  <SCORE.INTER.CONST>
1

>  <SCORE.INTER.POLAR>
0

>  <SCORE.INTER.ROT>
0

>  <SCORE.INTER.SOLV>
10.4782

>  <SCORE.INTER.VDW>
-11.9997

>  <SCORE.INTER.norm>
-0.613364

>  <SCORE.INTRA>
0

>  <SCORE.INTRA.DIHEDRAL>
0

>  <SCORE.INTRA.DIHEDRAL.0>
0

>  <SCORE.INTRA.POLAR>
0

>  <SCORE.INTRA.POLAR.0>
0

>  <SCORE.INTRA.REPUL>
0

>  <SCORE.INTRA.REPUL.0>
0

>  <SCORE.INTRA.SOLV>
0

>  <SCORE.INTRA.SOLV.lig_0>
-48.1583

>  <SCORE.INTRA.VDW>
0

>  <SCORE.INTRA.VDW.0>
0

>  <SCORE.INTRA.norm>
0

>  <SCORE.RESTR>
0

>  <SCORE.RESTR.CAVITY>
0

>  <SCORE.RESTR.norm>
0

>  <SCORE.SYSTEM>
0

>  <SCORE.SYSTEM.CONST>
0

>  <SCORE.SYSTEM.DIHEDRAL>
0

>  <SCORE.SYSTEM.SOLV>
0

>  <SCORE.SYSTEM.norm>
0

>  <SCORE.heavy>
12

>  <SCORE.norm>
-0.613364

>  <RMSD>
13.575

$$$$
ligand
 OpenBabel11021811503D
libRbt.so/2013.1/901 2013/11/27
 12 13  0  0  0  0  0  0  0  0999 V2000
   -5.8630   10.8872   -0.2788 C   0  0  0  0  0  0  0  0  0  0  0  0
   -7.3104   12.5051    0.5711 C   0  0  0  0  0  0  0  0  0  0  0  0
   -5.6140    9.6085   -0.5470 N   0  0  0  0  0  0  0  0  0  0  0  0
   -8.4462   12.8811    1.1691 N   0  0  0  0  0  0  0  0  0  0  0  0
   -7.0296   11.2203    0.3155 N   0  0  0  0  0  0  0  0  0  0  0  0
   -4.9616   11.8317   -0.6281 N   0  0  0  0  0  0  0  0  0  0  0  0
   -5.7267   15.8203    0.1601 N   0  0  0  0  0  0  0  0  0  0  0  0
   -4.5280   15.4368   -0.4610 C   0  0  0  0  0  0  0  0  0  0  0  0
   -4.2706   14.0700   -0.7181 N   0  0  0  0  0  0  0  0  0  0  0  0
   -5.1949   13.1449   -0.3807 C   0  0  0  0  0  0  0  0  0  0  0  0
   -6.3992   13.5117    0.2284 C   0  0  0  0  0  0  0  0  0  0  0  0
   -6.6842   14.8469    0.5080 C   0  0  0  0  0  0  0  0  0  0  0  0
  1  3  1  0  0  0  0
  1  5  1  0  0  0  0
  1  6  2  0  0  0  0
  2  5  2  0  0  0  0
  2 11  1  0  0  0  0
  2  4  1  0  0  0  0
  6 10  1  0  0  0  0
  7  8  2  0  0  0  0
  7 12  1  0  0  0  0
  8  9  1  0  0  0  0
  9 10  2  0  0  0  0
 10 11  1  0  0  0  0
 11 12  2  0  0  0  0
M  END
>  <CHROM.1>
-6.00281058,12.94903772,-0.00789899,-1.78394077,0.44690809,0.10296905

>  <Name>
ligand

>  <RI>
0

>  <Rbt.Current_Directory>
/home/itssahil/PROJECTS/Mol_Feturizer/New_Systems/rnas/4LX5

>  <Rbt.Executable>
rbdock ($Id: //depot/dev/client3/rdock/2013.1/src/exe/rbdock.cxx#4 $)

>  <Rbt.Library>
libRbt.so (2013.1, Build901 2013/11/27)

>  <Rbt.Parameter_File>
/export/apps/rDock/src/rDock_2013.1_src/data/scripts/dock_solv.prm

>  <Rbt.Receptor>
prm/blind_docking_20.prm

>  <SCORE>
-7.35241

>  <SCORE.INTER>
-7.35241

>  <SCORE.INTER.CONST>
1

>  <SCORE.INTER.POLAR>
0

>  <SCORE.INTER.ROT>
0

>  <SCORE.INTER.SOLV>
10.598

>  <SCORE.INTER.VDW>
-12.0343

>  <SCORE.INTER.norm>
-0.612701

>  <SCORE.INTRA>
0

>  <SCORE.INTRA.DIHEDRAL>
0

>  <SCORE.INTRA.DIHEDRAL.0>
0

>  <SCORE.INTRA.POLAR>
0

>  <SCORE.INTRA.POLAR.0>
0

>  <SCORE.INTRA.REPUL>
0

>  <SCORE.INTRA.REPUL.0>
0

>  <SCORE.INTRA.SOLV>
0

>  <SCORE.INTRA.SOLV.lig_0>
-48.1583

>  <SCORE.INTRA.VDW>
0

>  <SCORE.INTRA.VDW.0>
0

>  <SCORE.INTRA.norm>
0

>  <SCORE.RESTR>
0

>  <SCORE.RESTR.CAVITY>
0

>  <SCORE.RESTR.norm>
0

>  <SCORE.SYSTEM>
0

>  <SCORE.SYSTEM.CONST>
0

>  <SCORE.SYSTEM.DIHEDRAL>
0

>  <SCORE.SYSTEM.SOLV>
0

>  <SCORE.SYSTEM.norm>
0

>  <SCORE.heavy>
12

>  <SCORE.norm>
-0.612701

>  <RMSD>
13.579

$$$$
ligand
 OpenBabel11021811503D
libRbt.so/2013.1/901 2013/11/27
 12 13  0  0  0  0  0  0  0  0999 V2000
   -1.9484   25.8244   -0.7665 C   0  0  0  0  0  0  0  0  0  0  0  0
   -4.1196   26.5151   -1.2600 C   0  0  0  0  0  0  0  0  0  0  0  0
   -0.6424   26.0760   -0.7760 N   0  0  0  0  0  0  0  0  0  0  0  0
   -4.9984   27.3846   -1.7708 N   0  0  0  0  0  0  0  0  0  0  0  0
   -2.7989   26.7383   -1.2830 N   0  0  0  0  0  0  0  0  0  0  0  0
   -2.4044   24.6763   -0.2183 N   0  0  0  0  0  0  0  0  0  0  0  0
   -6.4643   23.8847   -0.1415 N   0  0  0  0  0  0  0  0  0  0  0  0
   -5.5510   22.9615    0.3906 C   0  0  0  0  0  0  0  0  0  0  0  0
   -4.1640   23.2360    0.3515 N   0  0  0  0  0  0  0  0  0  0  0  0
   -3.7318   24.3994   -0.1811 C   0  0  0  0  0  0  0  0  0  0  0  0
   -4.6297   25.3350   -0.7050 C   0  0  0  0  0  0  0  0  0  0  0  0
   -6.0026   25.0954   -0.6948 C   0  0  0  0  0  0  0  0  0  0  0  0
  1  3  1  0  0  0  0
  1  5  1  0  0  0  0
  1  6  2  0  0  0  0
  2  5  2  0  0  0  0
  2 11  1  0  0  0  0
  2  4  1  0  0  0  0
  6 10  1  0  0  0  0
  7  8  2  0  0  0  0
  7 12  1  0  0  0  0
  8  9  1  0  0  0  0
  9 10  2  0  0  0  0
 10 11  1  0  0  0  0
 11 12  2  0  0  0  0
M  END
>  <CHROM.1>
-3.92577770,25.18915906,-0.59188788,-0.60109465,0.06802317,2.68059038

>  <Name>
ligand

>  <RI>
0

>  <Rbt.Current_Directory>
/home/itssahil/PROJECTS/Mol_Feturizer/New_Systems/rnas/4LX5

>  <Rbt.Executable>
rbdock ($Id: //depot/dev/client3/rdock/2013.1/src/exe/rbdock.cxx#4 $)

>  <Rbt.Library>
libRbt.so (2013.1, Build901 2013/11/27)

>  <Rbt.Parameter_File>
/export/apps/rDock/src/rDock_2013.1_src/data/scripts/dock_solv.prm

>  <Rbt.Receptor>
prm/blind_docking_60.prm

>  <SCORE>
-7.74564

>  <SCORE.INTER>
-7.74564

>  <SCORE.INTER.CONST>
1

>  <SCORE.INTER.POLAR>
0

>  <SCORE.INTER.ROT>
0

>  <SCORE.INTER.SOLV>
5.51438

>  <SCORE.INTER.VDW>
-10.6019

>  <SCORE.INTER.norm>
-0.64547

>  <SCORE.INTRA>
0

>  <SCORE.INTRA.DIHEDRAL>
0

>  <SCORE.INTRA.DIHEDRAL.0>
0

>  <SCORE.INTRA.POLAR>
0

>  <SCORE.INTRA.POLAR.0>
0

>  <SCORE.INTRA.REPUL>
0

>  <SCORE.INTRA.REPUL.0>
0

>  <SCORE.INTRA.SOLV>
0

>  <SCORE.INTRA.SOLV.lig_0>
-48.1583

>  <SCORE.INTRA.VDW>
0

>  <SCORE.INTRA.VDW.0>
0

>  <SCORE.INTRA.norm>
0

>  <SCORE.RESTR>
0

>  <SCORE.RESTR.CAVITY>
0

>  <SCORE.RESTR.norm>
0

>  <SCORE.SYSTEM>
0

>  <SCORE.SYSTEM.CONST>
0

>  <SCORE.SYSTEM.DIHEDRAL>
0

>  <SCORE.SYSTEM.SOLV>
0

>  <SCORE.SYSTEM.norm>
0

>  <SCORE.heavy>
12

>  <SCORE.norm>
-0.64547

>  <RMSD>
13.646

$$$$
ligand
 OpenBabel11021811503D
libRbt.so/2013.1/901 2013/11/27
 12 13  0  0  0  0  0  0  0  0999 V2000
   -6.9845   14.5456   -0.2925 C   0  0  0  0  0  0  0  0  0  0  0  0
   -7.3799   12.4235    0.5880 C   0  0  0  0  0  0  0  0  0  0  0  0
   -7.4004   15.7934   -0.4897 N   0  0  0  0  0  0  0  0  0  0  0  0
   -8.1481   11.5261    1.2153 N   0  0  0  0  0  0  0  0  0  0  0  0
   -7.7906   13.6776    0.3570 N   0  0  0  0  0  0  0  0  0  0  0  0
   -5.7567   14.1746   -0.7185 N   0  0  0  0  0  0  0  0  0  0  0  0
   -4.4222   10.3103   -0.0853 N   0  0  0  0  0  0  0  0  0  0  0  0
   -3.6103   11.2412   -0.7515 C   0  0  0  0  0  0  0  0  0  0  0  0
   -4.0785   12.5576   -0.9720 N   0  0  0  0  0  0  0  0  0  0  0  0
   -5.2998   12.9132   -0.5183 C   0  0  0  0  0  0  0  0  0  0  0  0
   -6.1164   12.0006    0.1574 C   0  0  0  0  0  0  0  0  0  0  0  0
   -5.6948   10.6917    0.3839 C   0  0  0  0  0  0  0  0  0  0  0  0
  1  3  1  0  0  0  0
  1  5  1  0  0  0  0
  1  6  2  0  0  0  0
  2  5  2  0  0  0  0
  2 11  1  0  0  0  0
  2  4  1  0  0  0  0
  6 10  1  0  0  0  0
  7  8  2  0  0  0  0
  7 12  1  0  0  0  0
  8  9  1  0  0  0  0
  9 10  2  0  0  0  0
 10 11  1  0  0  0  0
 11 12  2  0  0  0  0
M  END
>  <CHROM.1>
-6.07291094,12.68161517,-0.09551472,-2.35122719,-0.40872424,2.82914301

>  <Name>
ligand

>  <RI>
0

>  <Rbt.Current_Directory>
/home/itssahil/PROJECTS/Mol_Feturizer/New_Systems/rnas/4LX5

>  <Rbt.Executable>
rbdock ($Id: //depot/dev/client3/rdock/2013.1/src/exe/rbdock.cxx#4 $)

>  <Rbt.Library>
libRbt.so (2013.1, Build901 2013/11/27)

>  <Rbt.Parameter_File>
/export/apps/rDock/src/rDock_2013.1_src/data/scripts/dock_solv.prm

>  <Rbt.Receptor>
prm/blind_docking_20.prm

>  <SCORE>
-5.96463

>  <SCORE.INTER>
-5.96463

>  <SCORE.INTER.CONST>
1

>  <SCORE.INTER.POLAR>
0

>  <SCORE.INTER.ROT>
0

>  <SCORE.INTER.SOLV>
7.40078

>  <SCORE.INTER.VDW>
-10.0433

>  <SCORE.INTER.norm>
-0.497052

>  <SCORE.INTRA>
0

>  <SCORE.INTRA.DIHEDRAL>
0

>  <SCORE.INTRA.DIHEDRAL.0>
0

>  <SCORE.INTRA.POLAR>
0

>  <SCORE.INTRA.POLAR.0>
0

>  <SCORE.INTRA.REPUL>
0

>  <SCORE.INTRA.REPUL.0>
0

>  <SCORE.INTRA.SOLV>
0

>  <SCORE.INTRA.SOLV.lig_0>
-48.1583

>  <SCORE.INTRA.VDW>
0

>  <SCORE.INTRA.VDW.0>
0

>  <SCORE.INTRA.norm>
0

>  <SCORE.RESTR>
0

>  <SCORE.RESTR.CAVITY>
0

>  <SCORE.RESTR.norm>
0

>  <SCORE.SYSTEM>
0

>  <SCORE.SYSTEM.CONST>
0

>  <SCORE.SYSTEM.DIHEDRAL>
0

>  <SCORE.SYSTEM.SOLV>
0

>  <SCORE.SYSTEM.norm>
0

>  <SCORE.heavy>
12

>  <SCORE.norm>
-0.497052

>  <RMSD>
13.815

$$$$
ligand
 OpenBabel11021811503D
libRbt.so/2013.1/901 2013/11/27
 12 13  0  0  0  0  0  0  0  0999 V2000
   -7.0133   14.4596   -0.2929 C   0  0  0  0  0  0  0  0  0  0  0  0
   -7.3721   12.3500    0.6321 C   0  0  0  0  0  0  0  0  0  0  0  0
   -7.4461   15.6988   -0.5070 N   0  0  0  0  0  0  0  0  0  0  0  0
   -8.1210   11.4559    1.2869 N   0  0  0  0  0  0  0  0  0  0  0  0
   -7.8002   13.5949    0.3841 N   0  0  0  0  0  0  0  0  0  0  0  0
   -5.7877   14.0942   -0.7300 N   0  0  0  0  0  0  0  0  0  0  0  0
   -4.4008   10.2572   -0.0454 N   0  0  0  0  0  0  0  0  0  0  0  0
   -3.6091   11.1845   -0.7403 C   0  0  0  0  0  0  0  0  0  0  0  0
   -4.0952   12.4914   -0.9782 N   0  0  0  0  0  0  0  0  0  0  0  0
   -5.3138   12.8419   -0.5133 C   0  0  0  0  0  0  0  0  0  0  0  0
   -6.1102   11.9331    0.1909 C   0  0  0  0  0  0  0  0  0  0  0  0
   -5.6707   10.6333    0.4352 C   0  0  0  0  0  0  0  0  0  0  0  0
  1  3  1  0  0  0  0
  1  5  1  0  0  0  0
  1  6  2  0  0  0  0
  2  5  2  0  0  0  0
  2 11  1  0  0  0  0
  2  4  1  0  0  0  0
  6 10  1  0  0  0  0
  7  8  2  0  0  0  0
  7 12  1  0  0  0  0
  8  9  1  0  0  0  0
  9 10  2  0  0  0  0
 10 11  1  0  0  0  0
 11 12  2  0  0  0  0
M  END
>  <CHROM.1>
-6.07807256,12.60968709,-0.07506221,-2.36780900,-0.41890730,2.80400900

>  <Name>
ligand

>  <RI>
0

>  <Rbt.Current_Directory>
/home/itssahil/PROJECTS/Mol_Feturizer/New_Systems/rnas/4LX5

>  <Rbt.Executable>
rbdock ($Id: //depot/dev/client3/rdock/2013.1/src/exe/rbdock.cxx#4 $)

>  <Rbt.Library>
libRbt.so (2013.1, Build901 2013/11/27)

>  <Rbt.Parameter_File>
/export/apps/rDock/src/rDock_2013.1_src/data/scripts/dock_solv.prm

>  <Rbt.Receptor>
prm/blind_docking_20.prm

>  <SCORE>
-5.96556

>  <SCORE.INTER>
-5.96556

>  <SCORE.INTER.CONST>
1

>  <SCORE.INTER.POLAR>
0

>  <SCORE.INTER.ROT>
0

>  <SCORE.INTER.SOLV>
7.23835

>  <SCORE.INTER.VDW>
-9.98982

>  <SCORE.INTER.norm>
-0.49713

>  <SCORE.INTRA>
0

>  <SCORE.INTRA.DIHEDRAL>
0

>  <SCORE.INTRA.DIHEDRAL.0>
0

>  <SCORE.INTRA.POLAR>
0

>  <SCORE.INTRA.POLAR.0>
0

>  <SCORE.INTRA.REPUL>
0

>  <SCORE.INTRA.REPUL.0>
0

>  <SCORE.INTRA.SOLV>
0

>  <SCORE.INTRA.SOLV.lig_0>
-48.1583

>  <SCORE.INTRA.VDW>
0

>  <SCORE.INTRA.VDW.0>
0

>  <SCORE.INTRA.norm>
0

>  <SCORE.RESTR>
0

>  <SCORE.RESTR.CAVITY>
0

>  <SCORE.RESTR.norm>
0

>  <SCORE.SYSTEM>
0

>  <SCORE.SYSTEM.CONST>
0

>  <SCORE.SYSTEM.DIHEDRAL>
0

>  <SCORE.SYSTEM.SOLV>
0

>  <SCORE.SYSTEM.norm>
0

>  <SCORE.heavy>
12

>  <SCORE.norm>
-0.49713

>  <RMSD>
13.839

$$$$
ligand
 OpenBabel11021811503D
libRbt.so/2013.1/901 2013/11/27
 12 13  0  0  0  0  0  0  0  0999 V2000
   -8.1355   15.3373    3.0625 C   0  0  0  0  0  0  0  0  0  0  0  0
   -7.8935   13.4106    1.7726 C   0  0  0  0  0  0  0  0  0  0  0  0
   -8.7341   15.9669    4.0696 N   0  0  0  0  0  0  0  0  0  0  0  0
   -8.2312   12.1610    1.4355 N   0  0  0  0  0  0  0  0  0  0  0  0
   -8.5018   14.0710    2.7667 N   0  0  0  0  0  0  0  0  0  0  0  0
   -7.1557   15.9611    2.3715 N   0  0  0  0  0  0  0  0  0  0  0  0
   -5.2507   14.0130   -0.7415 N   0  0  0  0  0  0  0  0  0  0  0  0
   -4.8931   15.3269   -0.4018 C   0  0  0  0  0  0  0  0  0  0  0  0
   -5.5563   15.9887    0.6579 N   0  0  0  0  0  0  0  0  0  0  0  0
   -6.5173   15.3387    1.3493 C   0  0  0  0  0  0  0  0  0  0  0  0
   -6.8773   14.0253    1.0307 C   0  0  0  0  0  0  0  0  0  0  0  0
   -6.2547   13.3441   -0.0136 C   0  0  0  0  0  0  0  0  0  0  0  0
  1  3  1  0  0  0  0
  1  5  1  0  0  0  0
  1  6  2  0  0  0  0
  2  5  2  0  0  0  0
  2 11  1  0  0  0  0
  2  4  1  0  0  0  0
  6 10  1  0  0  0  0
  7  8  2  0  0  0  0
  7 12  1  0  0  0  0
  8  9  1  0  0  0  0
  9 10  2  0  0  0  0
 10 11  1  0  0  0  0
 11 12  2  0  0  0  0
M  END
>  <CHROM.1>
-7.01837038,14.58754225,1.47066236,-2.67725710,-0.75438045,-2.64207374

>  <Name>
ligand

>  <RI>
0

>  <Rbt.Current_Directory>
/home/itssahil/PROJECTS/Mol_Feturizer/New_Systems/rnas/4LX5

>  <Rbt.Executable>
rbdock ($Id: //depot/dev/client3/rdock/2013.1/src/exe/rbdock.cxx#4 $)

>  <Rbt.Library>
libRbt.so (2013.1, Build901 2013/11/27)

>  <Rbt.Parameter_File>
/export/apps/rDock/src/rDock_2013.1_src/data/scripts/dock_solv.prm

>  <Rbt.Receptor>
prm/blind_docking_20.prm

>  <SCORE>
-7.08727

>  <SCORE.INTER>
-7.08727

>  <SCORE.INTER.CONST>
1

>  <SCORE.INTER.POLAR>
0

>  <SCORE.INTER.ROT>
0

>  <SCORE.INTER.SOLV>
5.11878

>  <SCORE.INTER.VDW>
-10.0311

>  <SCORE.INTER.norm>
-0.590606

>  <SCORE.INTRA>
0

>  <SCORE.INTRA.DIHEDRAL>
0

>  <SCORE.INTRA.DIHEDRAL.0>
0

>  <SCORE.INTRA.POLAR>
0

>  <SCORE.INTRA.POLAR.0>
0

>  <SCORE.INTRA.REPUL>
0

>  <SCORE.INTRA.REPUL.0>
0

>  <SCORE.INTRA.SOLV>
0

>  <SCORE.INTRA.SOLV.lig_0>
-48.1583

>  <SCORE.INTRA.VDW>
0

>  <SCORE.INTRA.VDW.0>
0

>  <SCORE.INTRA.norm>
0

>  <SCORE.RESTR>
0

>  <SCORE.RESTR.CAVITY>
0

>  <SCORE.RESTR.norm>
0

>  <SCORE.SYSTEM>
0

>  <SCORE.SYSTEM.CONST>
0

>  <SCORE.SYSTEM.DIHEDRAL>
0

>  <SCORE.SYSTEM.SOLV>
0

>  <SCORE.SYSTEM.norm>
0

>  <SCORE.heavy>
12

>  <SCORE.norm>
-0.590606

>  <RMSD>
13.979

$$$$
ligand
 OpenBabel11021811503D
libRbt.so/2013.1/901 2013/11/27
 12 13  0  0  0  0  0  0  0  0999 V2000
   -8.1413   15.3441    3.0565 C   0  0  0  0  0  0  0  0  0  0  0  0
   -7.8952   13.4152    1.7705 C   0  0  0  0  0  0  0  0  0  0  0  0
   -8.7422   15.9749    4.0614 N   0  0  0  0  0  0  0  0  0  0  0  0
   -8.2310   12.1646    1.4353 N   0  0  0  0  0  0  0  0  0  0  0  0
   -8.5058   14.0768    2.7625 N   0  0  0  0  0  0  0  0  0  0  0  0
   -7.1612   15.9677    2.3657 N   0  0  0  0  0  0  0  0  0  0  0  0
   -5.2494   14.0158   -0.7408 N   0  0  0  0  0  0  0  0  0  0  0  0
   -4.8938   15.3308   -0.4030 C   0  0  0  0  0  0  0  0  0  0  0  0
   -5.5594   15.9938    0.6544 N   0  0  0  0  0  0  0  0  0  0  0  0
   -6.5206   15.3440    1.3456 C   0  0  0  0  0  0  0  0  0  0  0  0
   -6.8786   14.0296    1.0290 C   0  0  0  0  0  0  0  0  0  0  0  0
   -6.2537   13.3472   -0.0131 C   0  0  0  0  0  0  0  0  0  0  0  0
  1  3  1  0  0  0  0
  1  5  1  0  0  0  0
  1  6  2  0  0  0  0
  2  5  2  0  0  0  0
  2 11  1  0  0  0  0
  2  4  1  0  0  0  0
  6 10  1  0  0  0  0
  7  8  2  0  0  0  0
  7 12  1  0  0  0  0
  8  9  1  0  0  0  0
  9 10  2  0  0  0  0
 10 11  1  0  0  0  0
 11 12  2  0  0  0  0
M  END
>  <CHROM.1>
-7.02100527,14.59254795,1.46766006,-2.67959786,-0.75362755,-2.64558450

>  <Name>
ligand

>  <RI>
0

>  <Rbt.Current_Directory>
/home/itssahil/PROJECTS/Mol_Feturizer/New_Systems/rnas/4LX5

>  <Rbt.Executable>
rbdock ($Id: //depot/dev/client3/rdock/2013.1/src/exe/rbdock.cxx#4 $)

>  <Rbt.Library>
libRbt.so (2013.1, Build901 2013/11/27)

>  <Rbt.Parameter_File>
/export/apps/rDock/src/rDock_2013.1_src/data/scripts/dock_solv.prm

>  <Rbt.Receptor>
prm/blind_docking_40.prm

>  <SCORE>
-7.08581

>  <SCORE.INTER>
-7.08581

>  <SCORE.INTER.CONST>
1

>  <SCORE.INTER.POLAR>
0

>  <SCORE.INTER.ROT>
0

>  <SCORE.INTER.SOLV>
5.10675

>  <SCORE.INTER.VDW>
-10.0261

>  <SCORE.INTER.norm>
-0.590484

>  <SCORE.INTRA>
0

>  <SCORE.INTRA.DIHEDRAL>
0

>  <SCORE.INTRA.DIHEDRAL.0>
0

>  <SCORE.INTRA.POLAR>
0

>  <SCORE.INTRA.POLAR.0>
0

>  <SCORE.INTRA.REPUL>
0

>  <SCORE.INTRA.REPUL.0>
0

>  <SCORE.INTRA.SOLV>
0

>  <SCORE.INTRA.SOLV.lig_0>
-48.1583

>  <SCORE.INTRA.VDW>
0

>  <SCORE.INTRA.VDW.0>
0

>  <SCORE.INTRA.norm>
0

>  <SCORE.RESTR>
0

>  <SCORE.RESTR.CAVITY>
0

>  <SCORE.RESTR.norm>
0

>  <SCORE.SYSTEM>
0

>  <SCORE.SYSTEM.CONST>
0

>  <SCORE.SYSTEM.DIHEDRAL>
0

>  <SCORE.SYSTEM.SOLV>
0

>  <SCORE.SYSTEM.norm>
0

>  <SCORE.heavy>
12

>  <SCORE.norm>
-0.590484

>  <RMSD>
13.980

$$$$
ligand
 OpenBabel11021811503D
libRbt.so/2013.1/901 2013/11/27
 12 13  0  0  0  0  0  0  0  0999 V2000
   -8.1368   15.3438    3.0538 C   0  0  0  0  0  0  0  0  0  0  0  0
   -7.8953   13.4153    1.7663 C   0  0  0  0  0  0  0  0  0  0  0  0
   -8.7350   15.9748    4.0601 N   0  0  0  0  0  0  0  0  0  0  0  0
   -8.2333   12.1653    1.4311 N   0  0  0  0  0  0  0  0  0  0  0  0
   -8.5033   14.0771    2.7598 N   0  0  0  0  0  0  0  0  0  0  0  0
   -7.1571   15.9665    2.3616 N   0  0  0  0  0  0  0  0  0  0  0  0
   -5.2533   14.0141   -0.7493 N   0  0  0  0  0  0  0  0  0  0  0  0
   -4.8955   15.3284   -0.4115 C   0  0  0  0  0  0  0  0  0  0  0  0
   -5.5583   15.9916    0.6475 N   0  0  0  0  0  0  0  0  0  0  0  0
   -6.5191   15.3427    1.3401 C   0  0  0  0  0  0  0  0  0  0  0  0
   -6.8793   14.0289    1.0233 C   0  0  0  0  0  0  0  0  0  0  0  0
   -6.2571   13.3463   -0.0203 C   0  0  0  0  0  0  0  0  0  0  0  0
  1  3  1  0  0  0  0
  1  5  1  0  0  0  0
  1  6  2  0  0  0  0
  2  5  2  0  0  0  0
  2 11  1  0  0  0  0
  2  4  1  0  0  0  0
  6 10  1  0  0  0  0
  7  8  2  0  0  0  0
  7 12  1  0  0  0  0
  8  9  1  0  0  0  0
  9 10  2  0  0  0  0
 10 11  1  0  0  0  0
 11 12  2  0  0  0  0
M  END
>  <CHROM.1>
-7.02020308,14.59175175,1.46257894,-2.67693063,-0.75460100,-2.64320121

>  <Name>
ligand

>  <RI>
0

>  <Rbt.Current_Directory>
/home/itssahil/PROJECTS/Mol_Feturizer/New_Systems/rnas/4LX5

>  <Rbt.Executable>
rbdock ($Id: //depot/dev/client3/rdock/2013.1/src/exe/rbdock.cxx#4 $)

>  <Rbt.Library>
libRbt.so (2013.1, Build901 2013/11/27)

>  <Rbt.Parameter_File>
/export/apps/rDock/src/rDock_2013.1_src/data/scripts/dock_solv.prm

>  <Rbt.Receptor>
prm/blind_docking_20.prm

>  <SCORE>
-7.08271

>  <SCORE.INTER>
-7.08271

>  <SCORE.INTER.CONST>
1

>  <SCORE.INTER.POLAR>
0

>  <SCORE.INTER.ROT>
0

>  <SCORE.INTER.SOLV>
5.12013

>  <SCORE.INTER.VDW>
-10.0285

>  <SCORE.INTER.norm>
-0.590226

>  <SCORE.INTRA>
0

>  <SCORE.INTRA.DIHEDRAL>
0

>  <SCORE.INTRA.DIHEDRAL.0>
0

>  <SCORE.INTRA.POLAR>
0

>  <SCORE.INTRA.POLAR.0>
0

>  <SCORE.INTRA.REPUL>
0

>  <SCORE.INTRA.REPUL.0>
0

>  <SCORE.INTRA.SOLV>
0

>  <SCORE.INTRA.SOLV.lig_0>
-48.1583

>  <SCORE.INTRA.VDW>
0

>  <SCORE.INTRA.VDW.0>
0

>  <SCORE.INTRA.norm>
0

>  <SCORE.RESTR>
0

>  <SCORE.RESTR.CAVITY>
0

>  <SCORE.RESTR.norm>
0

>  <SCORE.SYSTEM>
0

>  <SCORE.SYSTEM.CONST>
0

>  <SCORE.SYSTEM.DIHEDRAL>
0

>  <SCORE.SYSTEM.SOLV>
0

>  <SCORE.SYSTEM.norm>
0

>  <SCORE.heavy>
12

>  <SCORE.norm>
-0.590226

>  <RMSD>
13.981

$$$$
ligand
 OpenBabel11021811503D
libRbt.so/2013.1/901 2013/11/27
 12 13  0  0  0  0  0  0  0  0999 V2000
   -8.1165   15.2792    3.0495 C   0  0  0  0  0  0  0  0  0  0  0  0
   -7.8919   13.3616    1.7427 C   0  0  0  0  0  0  0  0  0  0  0  0
   -8.7050   15.9033    4.0658 N   0  0  0  0  0  0  0  0  0  0  0  0
   -8.2372   12.1161    1.3985 N   0  0  0  0  0  0  0  0  0  0  0  0
   -8.4902   14.0167    2.7466 N   0  0  0  0  0  0  0  0  0  0  0  0
   -7.1393   15.9044    2.3560 N   0  0  0  0  0  0  0  0  0  0  0  0
   -5.2656   13.9731   -0.7863 N   0  0  0  0  0  0  0  0  0  0  0  0
   -4.9001   15.2829   -0.4391 C   0  0  0  0  0  0  0  0  0  0  0  0
   -5.5527   15.9390    0.6307 N   0  0  0  0  0  0  0  0  0  0  0  0
   -6.5111   15.2875    1.3242 C   0  0  0  0  0  0  0  0  0  0  0  0
   -6.8788   13.9781    0.9981 C   0  0  0  0  0  0  0  0  0  0  0  0
   -6.2668   13.3026   -0.0562 C   0  0  0  0  0  0  0  0  0  0  0  0
  1  3  1  0  0  0  0
  1  5  1  0  0  0  0
  1  6  2  0  0  0  0
  2  5  2  0  0  0  0
  2 11  1  0  0  0  0
  2  4  1  0  0  0  0
  6 10  1  0  0  0  0
  7  8  2  0  0  0  0
  7 12  1  0  0  0  0
  8  9  1  0  0  0  0
  9 10  2  0  0  0  0
 10 11  1  0  0  0  0
 11 12  2  0  0  0  0
M  END
>  <CHROM.1>
-7.01432444,14.53740334,1.44344137,-2.66739709,-0.75896807,-2.62748903

>  <Name>
ligand

>  <RI>
0

>  <Rbt.Current_Directory>
/home/itssahil/PROJECTS/Mol_Feturizer/New_Systems/rnas/4LX5

>  <Rbt.Executable>
rbdock ($Id: //depot/dev/client3/rdock/2013.1/src/exe/rbdock.cxx#4 $)

>  <Rbt.Library>
libRbt.so (2013.1, Build901 2013/11/27)

>  <Rbt.Parameter_File>
/export/apps/rDock/src/rDock_2013.1_src/data/scripts/dock_solv.prm

>  <Rbt.Receptor>
prm/blind_docking_20.prm

>  <SCORE>
-7.06709

>  <SCORE.INTER>
-7.06709

>  <SCORE.INTER.CONST>
1

>  <SCORE.INTER.POLAR>
0

>  <SCORE.INTER.ROT>
0

>  <SCORE.INTER.SOLV>
5.15571

>  <SCORE.INTER.VDW>
-10.03

>  <SCORE.INTER.norm>
-0.588924

>  <SCORE.INTRA>
0

>  <SCORE.INTRA.DIHEDRAL>
0

>  <SCORE.INTRA.DIHEDRAL.0>
0

>  <SCORE.INTRA.POLAR>
0

>  <SCORE.INTRA.POLAR.0>
0

>  <SCORE.INTRA.REPUL>
0

>  <SCORE.INTRA.REPUL.0>
0

>  <SCORE.INTRA.SOLV>
0

>  <SCORE.INTRA.SOLV.lig_0>
-48.1583

>  <SCORE.INTRA.VDW>
0

>  <SCORE.INTRA.VDW.0>
0

>  <SCORE.INTRA.norm>
0

>  <SCORE.RESTR>
0

>  <SCORE.RESTR.CAVITY>
0

>  <SCORE.RESTR.norm>
0

>  <SCORE.SYSTEM>
0

>  <SCORE.SYSTEM.CONST>
0

>  <SCORE.SYSTEM.DIHEDRAL>
0

>  <SCORE.SYSTEM.SOLV>
0

>  <SCORE.SYSTEM.norm>
0

>  <SCORE.heavy>
12

>  <SCORE.norm>
-0.588924

>  <RMSD>
13.990

$$$$
ligand
 OpenBabel11021811503D
libRbt.so/2013.1/901 2013/11/27
 12 13  0  0  0  0  0  0  0  0999 V2000
   -8.1427   15.2920    3.0241 C   0  0  0  0  0  0  0  0  0  0  0  0
   -7.8842   13.3627    1.7410 C   0  0  0  0  0  0  0  0  0  0  0  0
   -8.7472   15.9204    4.0283 N   0  0  0  0  0  0  0  0  0  0  0  0
   -8.2117   12.1094    1.4080 N   0  0  0  0  0  0  0  0  0  0  0  0
   -8.4987   14.0218    2.7323 N   0  0  0  0  0  0  0  0  0  0  0  0
   -7.1671   15.9210    2.3318 N   0  0  0  0  0  0  0  0  0  0  0  0
   -5.2437   13.9772   -0.7725 N   0  0  0  0  0  0  0  0  0  0  0  0
   -4.8968   15.2950   -0.4370 C   0  0  0  0  0  0  0  0  0  0  0  0
   -5.5663   15.9552    0.6197 N   0  0  0  0  0  0  0  0  0  0  0  0
   -6.5228   15.3001    1.3124 C   0  0  0  0  0  0  0  0  0  0  0  0
   -6.8721   13.9829    0.9980 C   0  0  0  0  0  0  0  0  0  0  0  0
   -6.2431   13.3030   -0.0433 C   0  0  0  0  0  0  0  0  0  0  0  0
  1  3  1  0  0  0  0
  1  5  1  0  0  0  0
  1  6  2  0  0  0  0
  2  5  2  0  0  0  0
  2 11  1  0  0  0  0
  2  4  1  0  0  0  0
  6 10  1  0  0  0  0
  7  8  2  0  0  0  0
  7 12  1  0  0  0  0
  8  9  1  0  0  0  0
  9 10  2  0  0  0  0
 10 11  1  0  0  0  0
 11 12  2  0  0  0  0
M  END
>  <CHROM.1>
-7.01807095,14.54548151,1.43588586,-2.68740576,-0.75724012,-2.65250786

>  <Name>
ligand

>  <RI>
0

>  <Rbt.Current_Directory>
/home/itssahil/PROJECTS/Mol_Feturizer/New_Systems/rnas/4LX5

>  <Rbt.Executable>
rbdock ($Id: //depot/dev/client3/rdock/2013.1/src/exe/rbdock.cxx#4 $)

>  <Rbt.Library>
libRbt.so (2013.1, Build901 2013/11/27)

>  <Rbt.Parameter_File>
/export/apps/rDock/src/rDock_2013.1_src/data/scripts/dock_solv.prm

>  <Rbt.Receptor>
prm/blind_docking_20.prm

>  <SCORE>
-7.07762

>  <SCORE.INTER>
-7.07762

>  <SCORE.INTER.CONST>
1

>  <SCORE.INTER.POLAR>
0

>  <SCORE.INTER.ROT>
0

>  <SCORE.INTER.SOLV>
5.06683

>  <SCORE.INTER.VDW>
-10.0074

>  <SCORE.INTER.norm>
-0.589802

>  <SCORE.INTRA>
0

>  <SCORE.INTRA.DIHEDRAL>
0

>  <SCORE.INTRA.DIHEDRAL.0>
0

>  <SCORE.INTRA.POLAR>
0

>  <SCORE.INTRA.POLAR.0>
0

>  <SCORE.INTRA.REPUL>
0

>  <SCORE.INTRA.REPUL.0>
0

>  <SCORE.INTRA.SOLV>
0

>  <SCORE.INTRA.SOLV.lig_0>
-48.1583

>  <SCORE.INTRA.VDW>
0

>  <SCORE.INTRA.VDW.0>
0

>  <SCORE.INTRA.norm>
0

>  <SCORE.RESTR>
0

>  <SCORE.RESTR.CAVITY>
0

>  <SCORE.RESTR.norm>
0

>  <SCORE.SYSTEM>
0

>  <SCORE.SYSTEM.CONST>
0

>  <SCORE.SYSTEM.DIHEDRAL>
0

>  <SCORE.SYSTEM.SOLV>
0

>  <SCORE.SYSTEM.norm>
0

>  <SCORE.heavy>
12

>  <SCORE.norm>
-0.589802

>  <RMSD>
13.992

$$$$
ligand
 OpenBabel11021811503D
libRbt.so/2013.1/901 2013/11/27
 12 13  0  0  0  0  0  0  0  0999 V2000
   -8.1748   15.3375    3.0292 C   0  0  0  0  0  0  0  0  0  0  0  0
   -7.9100   13.3981    1.7628 C   0  0  0  0  0  0  0  0  0  0  0  0
   -8.7867   15.9749    4.0232 N   0  0  0  0  0  0  0  0  0  0  0  0
   -8.2380   12.1432    1.4361 N   0  0  0  0  0  0  0  0  0  0  0  0
   -8.5317   14.0662    2.7436 N   0  0  0  0  0  0  0  0  0  0  0  0
   -7.1913   15.9588    2.3412 N   0  0  0  0  0  0  0  0  0  0  0  0
   -5.2452   13.9868   -0.7311 N   0  0  0  0  0  0  0  0  0  0  0  0
   -4.8978   15.3062   -0.4023 C   0  0  0  0  0  0  0  0  0  0  0  0
   -5.5749   15.9760    0.6434 N   0  0  0  0  0  0  0  0  0  0  0  0
   -6.5395   15.3286    1.3323 C   0  0  0  0  0  0  0  0  0  0  0  0
   -6.8896   14.0100    1.0245 C   0  0  0  0  0  0  0  0  0  0  0  0
   -6.2531   13.3207   -0.0061 C   0  0  0  0  0  0  0  0  0  0  0  0
  1  3  1  0  0  0  0
  1  5  1  0  0  0  0
  1  6  2  0  0  0  0
  2  5  2  0  0  0  0
  2 11  1  0  0  0  0
  2  4  1  0  0  0  0
  6 10  1  0  0  0  0
  7  8  2  0  0  0  0
  7 12  1  0  0  0  0
  8  9  1  0  0  0  0
  9 10  2  0  0  0  0
 10 11  1  0  0  0  0
 11 12  2  0  0  0  0
M  END
>  <CHROM.1>
-7.03794477,14.57623676,1.45680763,-2.68989835,-0.74794779,-2.66161817

>  <Name>
ligand

>  <RI>
0

>  <Rbt.Current_Directory>
/home/itssahil/PROJECTS/Mol_Feturizer/New_Systems/rnas/4LX5

>  <Rbt.Executable>
rbdock ($Id: //depot/dev/client3/rdock/2013.1/src/exe/rbdock.cxx#4 $)

>  <Rbt.Library>
libRbt.so (2013.1, Build901 2013/11/27)

>  <Rbt.Parameter_File>
/export/apps/rDock/src/rDock_2013.1_src/data/scripts/dock_solv.prm

>  <Rbt.Receptor>
prm/blind_docking_20.prm

>  <SCORE>
-7.07981

>  <SCORE.INTER>
-7.07981

>  <SCORE.INTER.CONST>
1

>  <SCORE.INTER.POLAR>
0

>  <SCORE.INTER.ROT>
0

>  <SCORE.INTER.SOLV>
5.01848

>  <SCORE.INTER.VDW>
-9.9927

>  <SCORE.INTER.norm>
-0.589985

>  <SCORE.INTRA>
0

>  <SCORE.INTRA.DIHEDRAL>
0

>  <SCORE.INTRA.DIHEDRAL.0>
0

>  <SCORE.INTRA.POLAR>
0

>  <SCORE.INTRA.POLAR.0>
0

>  <SCORE.INTRA.REPUL>
0

>  <SCORE.INTRA.REPUL.0>
0

>  <SCORE.INTRA.SOLV>
0

>  <SCORE.INTRA.SOLV.lig_0>
-48.1583

>  <SCORE.INTRA.VDW>
0

>  <SCORE.INTRA.VDW.0>
0

>  <SCORE.INTRA.norm>
0

>  <SCORE.RESTR>
0

>  <SCORE.RESTR.CAVITY>
0

>  <SCORE.RESTR.norm>
0

>  <SCORE.SYSTEM>
0

>  <SCORE.SYSTEM.CONST>
0

>  <SCORE.SYSTEM.DIHEDRAL>
0

>  <SCORE.SYSTEM.SOLV>
0

>  <SCORE.SYSTEM.norm>
0

>  <SCORE.heavy>
12

>  <SCORE.norm>
-0.589985

>  <RMSD>
14.000

$$$$
ligand
 OpenBabel11021811503D
libRbt.so/2013.1/901 2013/11/27
 12 13  0  0  0  0  0  0  0  0999 V2000
   -8.1662   15.3209    3.0350 C   0  0  0  0  0  0  0  0  0  0  0  0
   -7.9047   13.3853    1.7622 C   0  0  0  0  0  0  0  0  0  0  0  0
   -8.7742   15.9547    4.0338 N   0  0  0  0  0  0  0  0  0  0  0  0
   -8.2324   12.1308    1.4338 N   0  0  0  0  0  0  0  0  0  0  0  0
   -8.5226   14.0498    2.7478 N   0  0  0  0  0  0  0  0  0  0  0  0
   -7.1871   15.9456    2.3439 N   0  0  0  0  0  0  0  0  0  0  0  0
   -5.2532   13.9849   -0.7433 N   0  0  0  0  0  0  0  0  0  0  0  0
   -4.9061   15.3039   -0.4126 C   0  0  0  0  0  0  0  0  0  0  0  0
   -5.5792   15.9698    0.6382 N   0  0  0  0  0  0  0  0  0  0  0  0
   -6.5393   15.3191    1.3301 C   0  0  0  0  0  0  0  0  0  0  0  0
   -6.8888   14.0008    1.0205 C   0  0  0  0  0  0  0  0  0  0  0  0
   -6.2564   13.3152   -0.0150 C   0  0  0  0  0  0  0  0  0  0  0  0
  1  3  1  0  0  0  0
  1  5  1  0  0  0  0
  1  6  2  0  0  0  0
  2  5  2  0  0  0  0
  2 11  1  0  0  0  0
  2  4  1  0  0  0  0
  6 10  1  0  0  0  0
  7  8  2  0  0  0  0
  7 12  1  0  0  0  0
  8  9  1  0  0  0  0
  9 10  2  0  0  0  0
 10 11  1  0  0  0  0
 11 12  2  0  0  0  0
M  END
>  <CHROM.1>
-7.03597077,14.56562905,1.45507347,-2.68865399,-0.75304112,-2.65809455

>  <Name>
ligand

>  <RI>
0

>  <Rbt.Current_Directory>
/home/itssahil/PROJECTS/Mol_Feturizer/New_Systems/rnas/4LX5

>  <Rbt.Executable>
rbdock ($Id: //depot/dev/client3/rdock/2013.1/src/exe/rbdock.cxx#4 $)

>  <Rbt.Library>
libRbt.so (2013.1, Build901 2013/11/27)

>  <Rbt.Parameter_File>
/export/apps/rDock/src/rDock_2013.1_src/data/scripts/dock_solv.prm

>  <Rbt.Receptor>
prm/blind_docking_20.prm

>  <SCORE>
-7.08133

>  <SCORE.INTER>
-7.08133

>  <SCORE.INTER.CONST>
1

>  <SCORE.INTER.POLAR>
0

>  <SCORE.INTER.ROT>
0

>  <SCORE.INTER.SOLV>
5.01616

>  <SCORE.INTER.VDW>
-9.99294

>  <SCORE.INTER.norm>
-0.590111

>  <SCORE.INTRA>
0

>  <SCORE.INTRA.DIHEDRAL>
0

>  <SCORE.INTRA.DIHEDRAL.0>
0

>  <SCORE.INTRA.POLAR>
0

>  <SCORE.INTRA.POLAR.0>
0

>  <SCORE.INTRA.REPUL>
0

>  <SCORE.INTRA.REPUL.0>
0

>  <SCORE.INTRA.SOLV>
0

>  <SCORE.INTRA.SOLV.lig_0>
-48.1583

>  <SCORE.INTRA.VDW>
0

>  <SCORE.INTRA.VDW.0>
0

>  <SCORE.INTRA.norm>
0

>  <SCORE.RESTR>
0

>  <SCORE.RESTR.CAVITY>
0

>  <SCORE.RESTR.norm>
0

>  <SCORE.SYSTEM>
0

>  <SCORE.SYSTEM.CONST>
0

>  <SCORE.SYSTEM.DIHEDRAL>
0

>  <SCORE.SYSTEM.SOLV>
0

>  <SCORE.SYSTEM.norm>
0

>  <SCORE.heavy>
12

>  <SCORE.norm>
-0.590111

>  <RMSD>
14.001

$$$$
ligand
 OpenBabel11021811503D
libRbt.so/2013.1/901 2013/11/27
 12 13  0  0  0  0  0  0  0  0999 V2000
   -8.1763   15.3256    3.0267 C   0  0  0  0  0  0  0  0  0  0  0  0
   -7.9067   13.3868    1.7605 C   0  0  0  0  0  0  0  0  0  0  0  0
   -8.7887   15.9611    4.0218 N   0  0  0  0  0  0  0  0  0  0  0  0
   -8.2305   12.1306    1.4349 N   0  0  0  0  0  0  0  0  0  0  0  0
   -8.5289   14.0528    2.7423 N   0  0  0  0  0  0  0  0  0  0  0  0
   -7.1966   15.9505    2.3365 N   0  0  0  0  0  0  0  0  0  0  0  0
   -5.2492   13.9849   -0.7391 N   0  0  0  0  0  0  0  0  0  0  0  0
   -4.9062   15.3057   -0.4114 C   0  0  0  0  0  0  0  0  0  0  0  0
   -5.5838   15.9733    0.6354 N   0  0  0  0  0  0  0  0  0  0  0  0
   -6.5444   15.3225    1.3265 C   0  0  0  0  0  0  0  0  0  0  0  0
   -6.8901   14.0024    1.0199 C   0  0  0  0  0  0  0  0  0  0  0  0
   -6.2530   13.3152   -0.0117 C   0  0  0  0  0  0  0  0  0  0  0  0
  1  3  1  0  0  0  0
  1  5  1  0  0  0  0
  1  6  2  0  0  0  0
  2  5  2  0  0  0  0
  2 11  1  0  0  0  0
  2  4  1  0  0  0  0
  6 10  1  0  0  0  0
  7  8  2  0  0  0  0
  7 12  1  0  0  0  0
  8  9  1  0  0  0  0
  9 10  2  0  0  0  0
 10 11  1  0  0  0  0
 11 12  2  0  0  0  0
M  END
>  <CHROM.1>
-7.03975437,14.56821594,1.45231389,-2.69329768,-0.75153418,-2.66428572

>  <Name>
ligand

>  <RI>
0

>  <Rbt.Current_Directory>
/home/itssahil/PROJECTS/Mol_Feturizer/New_Systems/rnas/4LX5

>  <Rbt.Executable>
rbdock ($Id: //depot/dev/client3/rdock/2013.1/src/exe/rbdock.cxx#4 $)

>  <Rbt.Library>
libRbt.so (2013.1, Build901 2013/11/27)

>  <Rbt.Parameter_File>
/export/apps/rDock/src/rDock_2013.1_src/data/scripts/dock_solv.prm

>  <Rbt.Receptor>
prm/blind_docking_20.prm

>  <SCORE>
-7.0829

>  <SCORE.INTER>
-7.0829

>  <SCORE.INTER.CONST>
1

>  <SCORE.INTER.POLAR>
0

>  <SCORE.INTER.ROT>
0

>  <SCORE.INTER.SOLV>
4.98767

>  <SCORE.INTER.VDW>
-9.98449

>  <SCORE.INTER.norm>
-0.590241

>  <SCORE.INTRA>
0

>  <SCORE.INTRA.DIHEDRAL>
0

>  <SCORE.INTRA.DIHEDRAL.0>
0

>  <SCORE.INTRA.POLAR>
0

>  <SCORE.INTRA.POLAR.0>
0

>  <SCORE.INTRA.REPUL>
0

>  <SCORE.INTRA.REPUL.0>
0

>  <SCORE.INTRA.SOLV>
0

>  <SCORE.INTRA.SOLV.lig_0>
-48.1583

>  <SCORE.INTRA.VDW>
0

>  <SCORE.INTRA.VDW.0>
0

>  <SCORE.INTRA.norm>
0

>  <SCORE.RESTR>
0

>  <SCORE.RESTR.CAVITY>
0

>  <SCORE.RESTR.norm>
0

>  <SCORE.SYSTEM>
0

>  <SCORE.SYSTEM.CONST>
0

>  <SCORE.SYSTEM.DIHEDRAL>
0

>  <SCORE.SYSTEM.SOLV>
0

>  <SCORE.SYSTEM.norm>
0

>  <SCORE.heavy>
12

>  <SCORE.norm>
-0.590241

>  <RMSD>
14.004

$$$$
ligand
 OpenBabel11021811503D
libRbt.so/2013.1/901 2013/11/27
 12 13  0  0  0  0  0  0  0  0999 V2000
   -8.1869   15.3094    2.9852 C   0  0  0  0  0  0  0  0  0  0  0  0
   -7.9189   13.3773    1.7085 C   0  0  0  0  0  0  0  0  0  0  0  0
   -8.8055   15.9431    3.9775 N   0  0  0  0  0  0  0  0  0  0  0  0
   -8.2495   12.1262    1.3702 N   0  0  0  0  0  0  0  0  0  0  0  0
   -8.5470   14.0417    2.6876 N   0  0  0  0  0  0  0  0  0  0  0  0
   -7.1939   15.9306    2.3110 N   0  0  0  0  0  0  0  0  0  0  0  0
   -5.2272   13.9700   -0.7555 N   0  0  0  0  0  0  0  0  0  0  0  0
   -4.8768   15.2855   -0.4144 C   0  0  0  0  0  0  0  0  0  0  0  0
   -5.5610   15.9515    0.6291 N   0  0  0  0  0  0  0  0  0  0  0  0
   -6.5352   15.3041    1.3042 C   0  0  0  0  0  0  0  0  0  0  0  0
   -6.8884   13.9892    0.9842 C   0  0  0  0  0  0  0  0  0  0  0  0
   -6.2451   13.3038   -0.0447 C   0  0  0  0  0  0  0  0  0  0  0  0
  1  3  1  0  0  0  0
  1  5  1  0  0  0  0
  1  6  2  0  0  0  0
  2  5  2  0  0  0  0
  2 11  1  0  0  0  0
  2  4  1  0  0  0  0
  6 10  1  0  0  0  0
  7  8  2  0  0  0  0
  7 12  1  0  0  0  0
  8  9  1  0  0  0  0
  9 10  2  0  0  0  0
 10 11  1  0  0  0  0
 11 12  2  0  0  0  0
M  END
>  <CHROM.1>
-7.03836714,14.55328186,1.41888128,-2.69039177,-0.73714855,-2.65526600

>  <Name>
ligand

>  <RI>
0

>  <Rbt.Current_Directory>
/home/itssahil/PROJECTS/Mol_Feturizer/New_Systems/rnas/4LX5

>  <Rbt.Executable>
rbdock ($Id: //depot/dev/client3/rdock/2013.1/src/exe/rbdock.cxx#4 $)

>  <Rbt.Library>
libRbt.so (2013.1, Build901 2013/11/27)

>  <Rbt.Parameter_File>
/export/apps/rDock/src/rDock_2013.1_src/data/scripts/dock_solv.prm

>  <Rbt.Receptor>
prm/blind_docking_20.prm

>  <SCORE>
-7.06739

>  <SCORE.INTER>
-7.06739

>  <SCORE.INTER.CONST>
1

>  <SCORE.INTER.POLAR>
0

>  <SCORE.INTER.ROT>
0

>  <SCORE.INTER.SOLV>
5.0365

>  <SCORE.INTER.VDW>
-9.99043

>  <SCORE.INTER.norm>
-0.588949

>  <SCORE.INTRA>
0

>  <SCORE.INTRA.DIHEDRAL>
0

>  <SCORE.INTRA.DIHEDRAL.0>
0

>  <SCORE.INTRA.POLAR>
0

>  <SCORE.INTRA.POLAR.0>
0

>  <SCORE.INTRA.REPUL>
0

>  <SCORE.INTRA.REPUL.0>
0

>  <SCORE.INTRA.SOLV>
0

>  <SCORE.INTRA.SOLV.lig_0>
-48.1583

>  <SCORE.INTRA.VDW>
0

>  <SCORE.INTRA.VDW.0>
0

>  <SCORE.INTRA.norm>
0

>  <SCORE.RESTR>
0

>  <SCORE.RESTR.CAVITY>
0

>  <SCORE.RESTR.norm>
0

>  <SCORE.SYSTEM>
0

>  <SCORE.SYSTEM.CONST>
0

>  <SCORE.SYSTEM.DIHEDRAL>
0

>  <SCORE.SYSTEM.SOLV>
0

>  <SCORE.SYSTEM.norm>
0

>  <SCORE.heavy>
12

>  <SCORE.norm>
-0.588949

>  <RMSD>
14.009

$$$$
ligand
 OpenBabel11021811503D
libRbt.so/2013.1/901 2013/11/27
 12 13  0  0  0  0  0  0  0  0999 V2000
   -8.2186   15.3228    2.9471 C   0  0  0  0  0  0  0  0  0  0  0  0
   -7.9243   13.3758    1.6991 C   0  0  0  0  0  0  0  0  0  0  0  0
   -8.8537   15.9662    3.9226 N   0  0  0  0  0  0  0  0  0  0  0  0
   -8.2447   12.1190    1.3723 N   0  0  0  0  0  0  0  0  0  0  0  0
   -8.5689   14.0498    2.6609 N   0  0  0  0  0  0  0  0  0  0  0  0
   -7.2190   15.9399    2.2788 N   0  0  0  0  0  0  0  0  0  0  0  0
   -5.2014   13.9495   -0.7348 N   0  0  0  0  0  0  0  0  0  0  0  0
   -4.8615   15.2708   -0.4058 C   0  0  0  0  0  0  0  0  0  0  0  0
   -5.5631   15.9469    0.6196 N   0  0  0  0  0  0  0  0  0  0  0  0
   -6.5437   15.3037    1.2894 C   0  0  0  0  0  0  0  0  0  0  0  0
   -6.8866   13.9832    0.9814 C   0  0  0  0  0  0  0  0  0  0  0  0
   -6.2261   13.2877   -0.0297 C   0  0  0  0  0  0  0  0  0  0  0  0
  1  3  1  0  0  0  0
  1  5  1  0  0  0  0
  1  6  2  0  0  0  0
  2  5  2  0  0  0  0
  2 11  1  0  0  0  0
  2  4  1  0  0  0  0
  6 10  1  0  0  0  0
  7  8  2  0  0  0  0
  7 12  1  0  0  0  0
  8  9  1  0  0  0  0
  9 10  2  0  0  0  0
 10 11  1  0  0  0  0
 11 12  2  0  0  0  0
M  END
>  <CHROM.1>
-7.04508518,14.55206895,1.40666311,-2.70428555,-0.72689792,-2.67731346

>  <Name>
ligand

>  <RI>
0

>  <Rbt.Current_Directory>
/home/itssahil/PROJECTS/Mol_Feturizer/New_Systems/rnas/4LX5

>  <Rbt.Executable>
rbdock ($Id: //depot/dev/client3/rdock/2013.1/src/exe/rbdock.cxx#4 $)

>  <Rbt.Library>
libRbt.so (2013.1, Build901 2013/11/27)

>  <Rbt.Parameter_File>
/export/apps/rDock/src/rDock_2013.1_src/data/scripts/dock_solv.prm

>  <Rbt.Receptor>
prm/blind_docking_20.prm

>  <SCORE>
-7.07214

>  <SCORE.INTER>
-7.07214

>  <SCORE.INTER.CONST>
1

>  <SCORE.INTER.POLAR>
0

>  <SCORE.INTER.ROT>
0

>  <SCORE.INTER.SOLV>
4.96883

>  <SCORE.INTER.VDW>
-9.97104

>  <SCORE.INTER.norm>
-0.589345

>  <SCORE.INTRA>
0

>  <SCORE.INTRA.DIHEDRAL>
0

>  <SCORE.INTRA.DIHEDRAL.0>
0

>  <SCORE.INTRA.POLAR>
0

>  <SCORE.INTRA.POLAR.0>
0

>  <SCORE.INTRA.REPUL>
0

>  <SCORE.INTRA.REPUL.0>
0

>  <SCORE.INTRA.SOLV>
0

>  <SCORE.INTRA.SOLV.lig_0>
-48.1583

>  <SCORE.INTRA.VDW>
0

>  <SCORE.INTRA.VDW.0>
0

>  <SCORE.INTRA.norm>
0

>  <SCORE.RESTR>
0

>  <SCORE.RESTR.CAVITY>
0

>  <SCORE.RESTR.norm>
0

>  <SCORE.SYSTEM>
0

>  <SCORE.SYSTEM.CONST>
0

>  <SCORE.SYSTEM.DIHEDRAL>
0

>  <SCORE.SYSTEM.SOLV>
0

>  <SCORE.SYSTEM.norm>
0

>  <SCORE.heavy>
12

>  <SCORE.norm>
-0.589345

>  <RMSD>
14.015

$$$$
ligand
 OpenBabel11021811503D
libRbt.so/2013.1/901 2013/11/27
 12 13  0  0  0  0  0  0  0  0999 V2000
   -8.2178   15.3250    2.9493 C   0  0  0  0  0  0  0  0  0  0  0  0
   -7.9269   13.3799    1.6975 C   0  0  0  0  0  0  0  0  0  0  0  0
   -8.8507   15.9671    3.9270 N   0  0  0  0  0  0  0  0  0  0  0  0
   -8.2485   12.1238    1.3693 N   0  0  0  0  0  0  0  0  0  0  0  0
   -8.5693   14.0526    2.6616 N   0  0  0  0  0  0  0  0  0  0  0  0
   -7.2191   15.9426    2.2802 N   0  0  0  0  0  0  0  0  0  0  0  0
   -5.2080   13.9560   -0.7404 N   0  0  0  0  0  0  0  0  0  0  0  0
   -4.8669   15.2766   -0.4098 C   0  0  0  0  0  0  0  0  0  0  0  0
   -5.5662   15.9514    0.6179 N   0  0  0  0  0  0  0  0  0  0  0  0
   -6.5459   15.3076    1.2885 C   0  0  0  0  0  0  0  0  0  0  0  0
   -6.8901   13.9879    0.9789 C   0  0  0  0  0  0  0  0  0  0  0  0
   -6.2319   13.2937   -0.0345 C   0  0  0  0  0  0  0  0  0  0  0  0
  1  3  1  0  0  0  0
  1  5  1  0  0  0  0
  1  6  2  0  0  0  0
  2  5  2  0  0  0  0
  2 11  1  0  0  0  0
  2  4  1  0  0  0  0
  6 10  1  0  0  0  0
  7  8  2  0  0  0  0
  7 12  1  0  0  0  0
  8  9  1  0  0  0  0
  9 10  2  0  0  0  0
 10 11  1  0  0  0  0
 11 12  2  0  0  0  0
M  END
>  <CHROM.1>
-7.04749478,14.55612485,1.40544276,-2.70253210,-0.72828798,-2.67450117

>  <Name>
ligand

>  <RI>
0

>  <Rbt.Current_Directory>
/home/itssahil/PROJECTS/Mol_Feturizer/New_Systems/rnas/4LX5

>  <Rbt.Executable>
rbdock ($Id: //depot/dev/client3/rdock/2013.1/src/exe/rbdock.cxx#4 $)

>  <Rbt.Library>
libRbt.so (2013.1, Build901 2013/11/27)

>  <Rbt.Parameter_File>
/export/apps/rDock/src/rDock_2013.1_src/data/scripts/dock_solv.prm

>  <Rbt.Receptor>
prm/blind_docking_20.prm

>  <SCORE>
-7.07486

>  <SCORE.INTER>
-7.07486

>  <SCORE.INTER.CONST>
1

>  <SCORE.INTER.POLAR>
0

>  <SCORE.INTER.ROT>
0

>  <SCORE.INTER.SOLV>
4.96882

>  <SCORE.INTER.VDW>
-9.97285

>  <SCORE.INTER.norm>
-0.589572

>  <SCORE.INTRA>
0

>  <SCORE.INTRA.DIHEDRAL>
0

>  <SCORE.INTRA.DIHEDRAL.0>
0

>  <SCORE.INTRA.POLAR>
0

>  <SCORE.INTRA.POLAR.0>
0

>  <SCORE.INTRA.REPUL>
0

>  <SCORE.INTRA.REPUL.0>
0

>  <SCORE.INTRA.SOLV>
0

>  <SCORE.INTRA.SOLV.lig_0>
-48.1583

>  <SCORE.INTRA.VDW>
0

>  <SCORE.INTRA.VDW.0>
0

>  <SCORE.INTRA.norm>
0

>  <SCORE.RESTR>
0

>  <SCORE.RESTR.CAVITY>
0

>  <SCORE.RESTR.norm>
0

>  <SCORE.SYSTEM>
0

>  <SCORE.SYSTEM.CONST>
0

>  <SCORE.SYSTEM.DIHEDRAL>
0

>  <SCORE.SYSTEM.SOLV>
0

>  <SCORE.SYSTEM.norm>
0

>  <SCORE.heavy>
12

>  <SCORE.norm>
-0.589572

>  <RMSD>
14.017

$$$$
ligand
 OpenBabel11021811503D
libRbt.so/2013.1/901 2013/11/27
 12 13  0  0  0  0  0  0  0  0999 V2000
   -8.2287   15.3210    2.9404 C   0  0  0  0  0  0  0  0  0  0  0  0
   -7.9298   13.3750    1.6920 C   0  0  0  0  0  0  0  0  0  0  0  0
   -8.8664   15.9633    3.9150 N   0  0  0  0  0  0  0  0  0  0  0  0
   -8.2481   12.1180    1.3640 N   0  0  0  0  0  0  0  0  0  0  0  0
   -8.5770   14.0478    2.6529 N   0  0  0  0  0  0  0  0  0  0  0  0
   -7.2286   15.9397    2.2743 N   0  0  0  0  0  0  0  0  0  0  0  0
   -5.2030   13.9530   -0.7365 N   0  0  0  0  0  0  0  0  0  0  0  0
   -4.8653   15.2745   -0.4062 C   0  0  0  0  0  0  0  0  0  0  0  0
   -5.5696   15.9494    0.6181 N   0  0  0  0  0  0  0  0  0  0  0  0
   -6.5507   15.3047    1.2858 C   0  0  0  0  0  0  0  0  0  0  0  0
   -6.8915   13.9840    0.9765 C   0  0  0  0  0  0  0  0  0  0  0  0
   -6.2283   13.2897   -0.0337 C   0  0  0  0  0  0  0  0  0  0  0  0
  1  3  1  0  0  0  0
  1  5  1  0  0  0  0
  1  6  2  0  0  0  0
  2  5  2  0  0  0  0
  2 11  1  0  0  0  0
  2  4  1  0  0  0  0
  6 10  1  0  0  0  0
  7  8  2  0  0  0  0
  7 12  1  0  0  0  0
  8  9  1  0  0  0  0
  9 10  2  0  0  0  0
 10 11  1  0  0  0  0
 11 12  2  0  0  0  0
M  END
>  <CHROM.1>
-7.05141352,14.55242492,1.40175659,-2.70681347,-0.72574368,-2.67851099

>  <Name>
ligand

>  <RI>
0

>  <Rbt.Current_Directory>
/home/itssahil/PROJECTS/Mol_Feturizer/New_Systems/rnas/4LX5

>  <Rbt.Executable>
rbdock ($Id: //depot/dev/client3/rdock/2013.1/src/exe/rbdock.cxx#4 $)

>  <Rbt.Library>
libRbt.so (2013.1, Build901 2013/11/27)

>  <Rbt.Parameter_File>
/export/apps/rDock/src/rDock_2013.1_src/data/scripts/dock_solv.prm

>  <Rbt.Receptor>
prm/blind_docking_20.prm

>  <SCORE>
-7.07233

>  <SCORE.INTER>
-7.07233

>  <SCORE.INTER.CONST>
1

>  <SCORE.INTER.POLAR>
0

>  <SCORE.INTER.ROT>
0

>  <SCORE.INTER.SOLV>
4.95323

>  <SCORE.INTER.VDW>
-9.96596

>  <SCORE.INTER.norm>
-0.589361

>  <SCORE.INTRA>
0

>  <SCORE.INTRA.DIHEDRAL>
0

>  <SCORE.INTRA.DIHEDRAL.0>
0

>  <SCORE.INTRA.POLAR>
0

>  <SCORE.INTRA.POLAR.0>
0

>  <SCORE.INTRA.REPUL>
0

>  <SCORE.INTRA.REPUL.0>
0

>  <SCORE.INTRA.SOLV>
0

>  <SCORE.INTRA.SOLV.lig_0>
-48.1583

>  <SCORE.INTRA.VDW>
0

>  <SCORE.INTRA.VDW.0>
0

>  <SCORE.INTRA.norm>
0

>  <SCORE.RESTR>
0

>  <SCORE.RESTR.CAVITY>
0

>  <SCORE.RESTR.norm>
0

>  <SCORE.SYSTEM>
0

>  <SCORE.SYSTEM.CONST>
0

>  <SCORE.SYSTEM.DIHEDRAL>
0

>  <SCORE.SYSTEM.SOLV>
0

>  <SCORE.SYSTEM.norm>
0

>  <SCORE.heavy>
12

>  <SCORE.norm>
-0.589361

>  <RMSD>
14.021

$$$$
ligand
 OpenBabel11021811503D
libRbt.so/2013.1/901 2013/11/27
 12 13  0  0  0  0  0  0  0  0999 V2000
   -8.4097   15.4920    2.5354 C   0  0  0  0  0  0  0  0  0  0  0  0
   -7.9991   13.4453    1.4974 C   0  0  0  0  0  0  0  0  0  0  0  0
   -9.1345   16.2136    3.3856 N   0  0  0  0  0  0  0  0  0  0  0  0
   -8.2877   12.1623    1.2535 N   0  0  0  0  0  0  0  0  0  0  0  0
   -8.7320   14.1961    2.3304 N   0  0  0  0  0  0  0  0  0  0  0  0
   -7.3504   16.0558    1.9136 N   0  0  0  0  0  0  0  0  0  0  0  0
   -5.0557   13.8241   -0.7073 N   0  0  0  0  0  0  0  0  0  0  0  0
   -4.7478   15.1717   -0.4650 C   0  0  0  0  0  0  0  0  0  0  0  0
   -5.5436   15.9298    0.4254 N   0  0  0  0  0  0  0  0  0  0  0  0
   -6.5841   15.3403    1.0528 C   0  0  0  0  0  0  0  0  0  0  0  0
   -6.8971   13.9954    0.8310 C   0  0  0  0  0  0  0  0  0  0  0  0
   -6.1436   13.2189   -0.0474 C   0  0  0  0  0  0  0  0  0  0  0  0
  1  3  1  0  0  0  0
  1  5  1  0  0  0  0
  1  6  2  0  0  0  0
  2  5  2  0  0  0  0
  2 11  1  0  0  0  0
  2  4  1  0  0  0  0
  6 10  1  0  0  0  0
  7  8  2  0  0  0  0
  7 12  1  0  0  0  0
  8  9  1  0  0  0  0
  9 10  2  0  0  0  0
 10 11  1  0  0  0  0
 11 12  2  0  0  0  0
M  END
>  <CHROM.1>
-7.09501406,14.59810101,1.18754407,-2.75679987,-0.64033774,-2.79872613

>  <Name>
ligand

>  <RI>
0

>  <Rbt.Current_Directory>
/home/itssahil/PROJECTS/Mol_Feturizer/New_Systems/rnas/4LX5

>  <Rbt.Executable>
rbdock ($Id: //depot/dev/client3/rdock/2013.1/src/exe/rbdock.cxx#4 $)

>  <Rbt.Library>
libRbt.so (2013.1, Build901 2013/11/27)

>  <Rbt.Parameter_File>
/export/apps/rDock/src/rDock_2013.1_src/data/scripts/dock_solv.prm

>  <Rbt.Receptor>
prm/blind_docking_20.prm

>  <SCORE>
-7.016

>  <SCORE.INTER>
-7.016

>  <SCORE.INTER.CONST>
1

>  <SCORE.INTER.POLAR>
0

>  <SCORE.INTER.ROT>
0

>  <SCORE.INTER.SOLV>
4.76768

>  <SCORE.INTER.VDW>
-9.86656

>  <SCORE.INTER.norm>
-0.584667

>  <SCORE.INTRA>
0

>  <SCORE.INTRA.DIHEDRAL>
0

>  <SCORE.INTRA.DIHEDRAL.0>
0

>  <SCORE.INTRA.POLAR>
0

>  <SCORE.INTRA.POLAR.0>
0

>  <SCORE.INTRA.REPUL>
0

>  <SCORE.INTRA.REPUL.0>
0

>  <SCORE.INTRA.SOLV>
0

>  <SCORE.INTRA.SOLV.lig_0>
-48.1583

>  <SCORE.INTRA.VDW>
0

>  <SCORE.INTRA.VDW.0>
0

>  <SCORE.INTRA.norm>
0

>  <SCORE.RESTR>
0

>  <SCORE.RESTR.CAVITY>
0

>  <SCORE.RESTR.norm>
0

>  <SCORE.SYSTEM>
0

>  <SCORE.SYSTEM.CONST>
0

>  <SCORE.SYSTEM.DIHEDRAL>
0

>  <SCORE.SYSTEM.SOLV>
0

>  <SCORE.SYSTEM.norm>
0

>  <SCORE.heavy>
12

>  <SCORE.norm>
-0.584667

>  <RMSD>
14.070

$$$$
ligand
 OpenBabel11021811503D
libRbt.so/2013.1/901 2013/11/27
 12 13  0  0  0  0  0  0  0  0999 V2000
   -8.6215   15.3427    2.0075 C   0  0  0  0  0  0  0  0  0  0  0  0
   -7.9643   13.2845    1.1318 C   0  0  0  0  0  0  0  0  0  0  0  0
   -9.4924   16.0529    2.7189 N   0  0  0  0  0  0  0  0  0  0  0  0
   -8.1474   11.9777    0.9135 N   0  0  0  0  0  0  0  0  0  0  0  0
   -8.8424   14.0226    1.8238 N   0  0  0  0  0  0  0  0  0  0  0  0
   -7.5203   15.9438    1.5048 N   0  0  0  0  0  0  0  0  0  0  0  0
   -4.7758   13.7511   -0.6802 N   0  0  0  0  0  0  0  0  0  0  0  0
   -4.5770   15.1234   -0.4641 C   0  0  0  0  0  0  0  0  0  0  0  0
   -5.5254   15.8673    0.2761 N   0  0  0  0  0  0  0  0  0  0  0  0
   -6.6074   15.2419    0.7880 C   0  0  0  0  0  0  0  0  0  0  0  0
   -6.8142   13.8727    0.5913 C   0  0  0  0  0  0  0  0  0  0  0  0
   -5.9082   13.1085   -0.1417 C   0  0  0  0  0  0  0  0  0  0  0  0
  1  3  1  0  0  0  0
  1  5  1  0  0  0  0
  1  6  2  0  0  0  0
  2  5  2  0  0  0  0
  2 11  1  0  0  0  0
  2  4  1  0  0  0  0
  6 10  1  0  0  0  0
  7  8  2  0  0  0  0
  7 12  1  0  0  0  0
  8  9  1  0  0  0  0
  9 10  2  0  0  0  0
 10 11  1  0  0  0  0
 11 12  2  0  0  0  0
M  END
>  <CHROM.1>
-7.09073008,14.47626167,0.88937220,-2.86867321,-0.52830845,-2.90478314

>  <Name>
ligand

>  <RI>
0

>  <Rbt.Current_Directory>
/home/itssahil/PROJECTS/Mol_Feturizer/New_Systems/rnas/4LX5

>  <Rbt.Executable>
rbdock ($Id: //depot/dev/client3/rdock/2013.1/src/exe/rbdock.cxx#4 $)

>  <Rbt.Library>
libRbt.so (2013.1, Build901 2013/11/27)

>  <Rbt.Parameter_File>
/export/apps/rDock/src/rDock_2013.1_src/data/scripts/dock_solv.prm

>  <Rbt.Receptor>
prm/blind_docking_100.prm

>  <SCORE>
-6.94433

>  <SCORE.INTER>
-6.94433

>  <SCORE.INTER.CONST>
1

>  <SCORE.INTER.POLAR>
0

>  <SCORE.INTER.ROT>
0

>  <SCORE.INTER.SOLV>
5.46837

>  <SCORE.INTER.VDW>
-10.0523

>  <SCORE.INTER.norm>
-0.578694

>  <SCORE.INTRA>
0

>  <SCORE.INTRA.DIHEDRAL>
0

>  <SCORE.INTRA.DIHEDRAL.0>
0

>  <SCORE.INTRA.POLAR>
0

>  <SCORE.INTRA.POLAR.0>
0

>  <SCORE.INTRA.REPUL>
0

>  <SCORE.INTRA.REPUL.0>
0

>  <SCORE.INTRA.SOLV>
0

>  <SCORE.INTRA.SOLV.lig_0>
-48.1583

>  <SCORE.INTRA.VDW>
0

>  <SCORE.INTRA.VDW.0>
0

>  <SCORE.INTRA.norm>
0

>  <SCORE.RESTR>
0

>  <SCORE.RESTR.CAVITY>
0

>  <SCORE.RESTR.norm>
0

>  <SCORE.SYSTEM>
0

>  <SCORE.SYSTEM.CONST>
0

>  <SCORE.SYSTEM.DIHEDRAL>
0

>  <SCORE.SYSTEM.SOLV>
0

>  <SCORE.SYSTEM.norm>
0

>  <SCORE.heavy>
12

>  <SCORE.norm>
-0.578694

>  <RMSD>
14.117

$$$$
ligand
 OpenBabel11021811503D
libRbt.so/2013.1/901 2013/11/27
 12 13  0  0  0  0  0  0  0  0999 V2000
   -8.6481   15.3573    1.9572 C   0  0  0  0  0  0  0  0  0  0  0  0
   -7.9799   13.2823    1.1308 C   0  0  0  0  0  0  0  0  0  0  0  0
   -9.5251   16.0804    2.6476 N   0  0  0  0  0  0  0  0  0  0  0  0
   -8.1581   11.9705    0.9401 N   0  0  0  0  0  0  0  0  0  0  0  0
   -8.8642   14.0329    1.8011 N   0  0  0  0  0  0  0  0  0  0  0  0
   -7.5455   15.9504    1.4481 N   0  0  0  0  0  0  0  0  0  0  0  0
   -4.7818   13.7182   -0.6718 N   0  0  0  0  0  0  0  0  0  0  0  0
   -4.5881   15.0955   -0.4846 C   0  0  0  0  0  0  0  0  0  0  0  0
   -5.5429   15.8527    0.2334 N   0  0  0  0  0  0  0  0  0  0  0  0
   -6.6263   15.2356    0.7523 C   0  0  0  0  0  0  0  0  0  0  0  0
   -6.8281   13.8618    0.5845 C   0  0  0  0  0  0  0  0  0  0  0  0
   -5.9156   13.0843   -0.1262 C   0  0  0  0  0  0  0  0  0  0  0  0
  1  3  1  0  0  0  0
  1  5  1  0  0  0  0
  1  6  2  0  0  0  0
  2  5  2  0  0  0  0
  2 11  1  0  0  0  0
  2  4  1  0  0  0  0
  6 10  1  0  0  0  0
  7  8  2  0  0  0  0
  7 12  1  0  0  0  0
  8  9  1  0  0  0  0
  9 10  2  0  0  0  0
 10 11  1  0  0  0  0
 11 12  2  0  0  0  0
M  END
>  <CHROM.1>
-7.10814482,14.47096145,0.86756763,-2.87337218,-0.52303993,-2.92904035

>  <Name>
ligand

>  <RI>
0

>  <Rbt.Current_Directory>
/home/itssahil/PROJECTS/Mol_Feturizer/New_Systems/rnas/4LX5

>  <Rbt.Executable>
rbdock ($Id: //depot/dev/client3/rdock/2013.1/src/exe/rbdock.cxx#4 $)

>  <Rbt.Library>
libRbt.so (2013.1, Build901 2013/11/27)

>  <Rbt.Parameter_File>
/export/apps/rDock/src/rDock_2013.1_src/data/scripts/dock_solv.prm

>  <Rbt.Receptor>
prm/blind_docking_20.prm

>  <SCORE>
-6.9486

>  <SCORE.INTER>
-6.9486

>  <SCORE.INTER.CONST>
1

>  <SCORE.INTER.POLAR>
0

>  <SCORE.INTER.ROT>
0

>  <SCORE.INTER.SOLV>
5.37519

>  <SCORE.INTER.VDW>
-10.0241

>  <SCORE.INTER.norm>
-0.57905

>  <SCORE.INTRA>
0

>  <SCORE.INTRA.DIHEDRAL>
0

>  <SCORE.INTRA.DIHEDRAL.0>
0

>  <SCORE.INTRA.POLAR>
0

>  <SCORE.INTRA.POLAR.0>
0

>  <SCORE.INTRA.REPUL>
0

>  <SCORE.INTRA.REPUL.0>
0

>  <SCORE.INTRA.SOLV>
0

>  <SCORE.INTRA.SOLV.lig_0>
-48.1583

>  <SCORE.INTRA.VDW>
0

>  <SCORE.INTRA.VDW.0>
0

>  <SCORE.INTRA.norm>
0

>  <SCORE.RESTR>
0

>  <SCORE.RESTR.CAVITY>
0

>  <SCORE.RESTR.norm>
0

>  <SCORE.SYSTEM>
0

>  <SCORE.SYSTEM.CONST>
0

>  <SCORE.SYSTEM.DIHEDRAL>
0

>  <SCORE.SYSTEM.SOLV>
0

>  <SCORE.SYSTEM.norm>
0

>  <SCORE.heavy>
12

>  <SCORE.norm>
-0.57905

>  <RMSD>
14.137

$$$$
ligand
 OpenBabel11021811503D
libRbt.so/2013.1/901 2013/11/27
 12 13  0  0  0  0  0  0  0  0999 V2000
   -8.6757   15.3770    1.9485 C   0  0  0  0  0  0  0  0  0  0  0  0
   -8.0140   13.3008    1.1201 C   0  0  0  0  0  0  0  0  0  0  0  0
   -9.5519   16.1026    2.6375 N   0  0  0  0  0  0  0  0  0  0  0  0
   -8.1973   11.9901    0.9262 N   0  0  0  0  0  0  0  0  0  0  0  0
   -8.8972   14.0539    1.7891 N   0  0  0  0  0  0  0  0  0  0  0  0
   -7.5688   15.9663    1.4443 N   0  0  0  0  0  0  0  0  0  0  0  0
   -4.8079   13.7262   -0.6709 N   0  0  0  0  0  0  0  0  0  0  0  0
   -4.6088   15.1022   -0.4803 C   0  0  0  0  0  0  0  0  0  0  0  0
   -5.5627   15.8622    0.2360 N   0  0  0  0  0  0  0  0  0  0  0  0
   -6.6505   15.2488    0.7501 C   0  0  0  0  0  0  0  0  0  0  0  0
   -6.8578   13.8763    0.5788 C   0  0  0  0  0  0  0  0  0  0  0  0
   -5.9464   13.0962   -0.1304 C   0  0  0  0  0  0  0  0  0  0  0  0
  1  3  1  0  0  0  0
  1  5  1  0  0  0  0
  1  6  2  0  0  0  0
  2  5  2  0  0  0  0
  2 11  1  0  0  0  0
  2  4  1  0  0  0  0
  6 10  1  0  0  0  0
  7  8  2  0  0  0  0
  7 12  1  0  0  0  0
  8  9  1  0  0  0  0
  9 10  2  0  0  0  0
 10 11  1  0  0  0  0
 11 12  2  0  0  0  0
M  END
>  <CHROM.1>
-7.13607218,14.48607484,0.86221612,-2.86922995,-0.51886002,-2.92495784

>  <Name>
ligand

>  <RI>
0

>  <Rbt.Current_Directory>
/home/itssahil/PROJECTS/Mol_Feturizer/New_Systems/rnas/4LX5

>  <Rbt.Executable>
rbdock ($Id: //depot/dev/client3/rdock/2013.1/src/exe/rbdock.cxx#4 $)

>  <Rbt.Library>
libRbt.so (2013.1, Build901 2013/11/27)

>  <Rbt.Parameter_File>
/export/apps/rDock/src/rDock_2013.1_src/data/scripts/dock_solv.prm

>  <Rbt.Receptor>
prm/blind_docking_20.prm

>  <SCORE>
-6.95663

>  <SCORE.INTER>
-6.95663

>  <SCORE.INTER.CONST>
1

>  <SCORE.INTER.POLAR>
0

>  <SCORE.INTER.ROT>
0

>  <SCORE.INTER.SOLV>
5.39033

>  <SCORE.INTER.VDW>
-10.0345

>  <SCORE.INTER.norm>
-0.579719

>  <SCORE.INTRA>
0

>  <SCORE.INTRA.DIHEDRAL>
0

>  <SCORE.INTRA.DIHEDRAL.0>
0

>  <SCORE.INTRA.POLAR>
0

>  <SCORE.INTRA.POLAR.0>
0

>  <SCORE.INTRA.REPUL>
0

>  <SCORE.INTRA.REPUL.0>
0

>  <SCORE.INTRA.SOLV>
0

>  <SCORE.INTRA.SOLV.lig_0>
-48.1583

>  <SCORE.INTRA.VDW>
0

>  <SCORE.INTRA.VDW.0>
0

>  <SCORE.INTRA.norm>
0

>  <SCORE.RESTR>
0

>  <SCORE.RESTR.CAVITY>
0

>  <SCORE.RESTR.norm>
0

>  <SCORE.SYSTEM>
0

>  <SCORE.SYSTEM.CONST>
0

>  <SCORE.SYSTEM.DIHEDRAL>
0

>  <SCORE.SYSTEM.SOLV>
0

>  <SCORE.SYSTEM.norm>
0

>  <SCORE.heavy>
12

>  <SCORE.norm>
-0.579719

>  <RMSD>
14.160

$$$$
ligand
 OpenBabel11021811503D
libRbt.so/2013.1/901 2013/11/27
 12 13  0  0  0  0  0  0  0  0999 V2000
   -7.9885   12.2201    2.1990 C   0  0  0  0  0  0  0  0  0  0  0  0
   -7.7543   14.5092    2.5728 C   0  0  0  0  0  0  0  0  0  0  0  0
   -8.5554   11.0633    2.5300 N   0  0  0  0  0  0  0  0  0  0  0  0
   -8.0181   15.6314    3.2511 N   0  0  0  0  0  0  0  0  0  0  0  0
   -8.2950   13.3297    2.9060 N   0  0  0  0  0  0  0  0  0  0  0  0
   -7.1398   12.2727    1.1486 N   0  0  0  0  0  0  0  0  0  0  0  0
   -5.3910   15.8645    0.0736 N   0  0  0  0  0  0  0  0  0  0  0  0
   -5.1008   14.6920   -0.6409 C   0  0  0  0  0  0  0  0  0  0  0  0
   -5.6959   13.4665   -0.2604 N   0  0  0  0  0  0  0  0  0  0  0  0
   -6.5582   13.4410    0.7787 C   0  0  0  0  0  0  0  0  0  0  0  0
   -6.8667   14.6027    1.4937 C   0  0  0  0  0  0  0  0  0  0  0  0
   -6.2920   15.8267    1.1562 C   0  0  0  0  0  0  0  0  0  0  0  0
  1  3  1  0  0  0  0
  1  5  1  0  0  0  0
  1  6  2  0  0  0  0
  2  5  2  0  0  0  0
  2 11  1  0  0  0  0
  2  4  1  0  0  0  0
  6 10  1  0  0  0  0
  7  8  2  0  0  0  0
  7 12  1  0  0  0  0
  8  9  1  0  0  0  0
  9 10  2  0  0  0  0
 10 11  1  0  0  0  0
 11 12  2  0  0  0  0
M  END
>  <CHROM.1>
-6.98751896,13.88656954,1.44739395,-2.70263384,0.86903217,0.29039469

>  <Name>
ligand

>  <RI>
0

>  <Rbt.Current_Directory>
/home/itssahil/PROJECTS/Mol_Feturizer/New_Systems/rnas/4LX5

>  <Rbt.Executable>
rbdock ($Id: //depot/dev/client3/rdock/2013.1/src/exe/rbdock.cxx#4 $)

>  <Rbt.Library>
libRbt.so (2013.1, Build901 2013/11/27)

>  <Rbt.Parameter_File>
/export/apps/rDock/src/rDock_2013.1_src/data/scripts/dock_solv.prm

>  <Rbt.Receptor>
prm/blind_docking_20.prm

>  <SCORE>
-4.37082

>  <SCORE.INTER>
-4.37082

>  <SCORE.INTER.CONST>
1

>  <SCORE.INTER.POLAR>
0

>  <SCORE.INTER.ROT>
0

>  <SCORE.INTER.SOLV>
7.42521

>  <SCORE.INTER.VDW>
-8.98895

>  <SCORE.INTER.norm>
-0.364235

>  <SCORE.INTRA>
0

>  <SCORE.INTRA.DIHEDRAL>
0

>  <SCORE.INTRA.DIHEDRAL.0>
0

>  <SCORE.INTRA.POLAR>
0

>  <SCORE.INTRA.POLAR.0>
0

>  <SCORE.INTRA.REPUL>
0

>  <SCORE.INTRA.REPUL.0>
0

>  <SCORE.INTRA.SOLV>
0

>  <SCORE.INTRA.SOLV.lig_0>
-48.1583

>  <SCORE.INTRA.VDW>
0

>  <SCORE.INTRA.VDW.0>
0

>  <SCORE.INTRA.norm>
0

>  <SCORE.RESTR>
0

>  <SCORE.RESTR.CAVITY>
0

>  <SCORE.RESTR.norm>
0

>  <SCORE.SYSTEM>
0

>  <SCORE.SYSTEM.CONST>
0

>  <SCORE.SYSTEM.DIHEDRAL>
0

>  <SCORE.SYSTEM.SOLV>
0

>  <SCORE.SYSTEM.norm>
0

>  <SCORE.heavy>
12

>  <SCORE.norm>
-0.364235

>  <RMSD>
14.177

$$$$
ligand
 OpenBabel11021811503D
libRbt.so/2013.1/901 2013/11/27
 12 13  0  0  0  0  0  0  0  0999 V2000
   -8.4889   16.7646    2.9151 C   0  0  0  0  0  0  0  0  0  0  0  0
   -9.0279   17.1586    0.6815 C   0  0  0  0  0  0  0  0  0  0  0  0
   -8.8142   16.8646    4.2008 N   0  0  0  0  0  0  0  0  0  0  0  0
   -9.8183   17.6562   -0.2759 N   0  0  0  0  0  0  0  0  0  0  0  0
   -9.3250   17.2717    1.9829 N   0  0  0  0  0  0  0  0  0  0  0  0
   -7.3460   16.1360    2.5613 N   0  0  0  0  0  0  0  0  0  0  0  0
   -6.3277   15.7772   -1.4324 N   0  0  0  0  0  0  0  0  0  0  0  0
   -5.4867   15.2579   -0.4362 C   0  0  0  0  0  0  0  0  0  0  0  0
   -5.8380   15.3935    0.9272 N   0  0  0  0  0  0  0  0  0  0  0  0
   -6.9956   16.0058    1.2573 C   0  0  0  0  0  0  0  0  0  0  0  0
   -7.8502   16.5185    0.2761 C   0  0  0  0  0  0  0  0  0  0  0  0
   -7.5331   16.4142   -1.0770 C   0  0  0  0  0  0  0  0  0  0  0  0
  1  3  1  0  0  0  0
  1  5  1  0  0  0  0
  1  6  2  0  0  0  0
  2  5  2  0  0  0  0
  2 11  1  0  0  0  0
  2  4  1  0  0  0  0
  6 10  1  0  0  0  0
  7  8  2  0  0  0  0
  7 12  1  0  0  0  0
  8  9  1  0  0  0  0
  9 10  2  0  0  0  0
 10 11  1  0  0  0  0
 11 12  2  0  0  0  0
M  END
>  <CHROM.1>
-7.75097622,16.44114695,0.99284836,-2.27547790,0.50537839,-1.52135265

>  <Name>
ligand

>  <RI>
0

>  <Rbt.Current_Directory>
/home/itssahil/PROJECTS/Mol_Feturizer/New_Systems/rnas/4LX5

>  <Rbt.Executable>
rbdock ($Id: //depot/dev/client3/rdock/2013.1/src/exe/rbdock.cxx#4 $)

>  <Rbt.Library>
libRbt.so (2013.1, Build901 2013/11/27)

>  <Rbt.Parameter_File>
/export/apps/rDock/src/rDock_2013.1_src/data/scripts/dock_solv.prm

>  <Rbt.Receptor>
prm/blind_docking_100.prm

>  <SCORE>
-5.60825

>  <SCORE.INTER>
-5.60825

>  <SCORE.INTER.CONST>
1

>  <SCORE.INTER.POLAR>
0

>  <SCORE.INTER.ROT>
0

>  <SCORE.INTER.SOLV>
4.4149

>  <SCORE.INTER.VDW>
-8.81047

>  <SCORE.INTER.norm>
-0.467354

>  <SCORE.INTRA>
0

>  <SCORE.INTRA.DIHEDRAL>
0

>  <SCORE.INTRA.DIHEDRAL.0>
0

>  <SCORE.INTRA.POLAR>
0

>  <SCORE.INTRA.POLAR.0>
0

>  <SCORE.INTRA.REPUL>
0

>  <SCORE.INTRA.REPUL.0>
0

>  <SCORE.INTRA.SOLV>
0

>  <SCORE.INTRA.SOLV.lig_0>
-48.1583

>  <SCORE.INTRA.VDW>
0

>  <SCORE.INTRA.VDW.0>
0

>  <SCORE.INTRA.norm>
0

>  <SCORE.RESTR>
0

>  <SCORE.RESTR.CAVITY>
0

>  <SCORE.RESTR.norm>
0

>  <SCORE.SYSTEM>
0

>  <SCORE.SYSTEM.CONST>
0

>  <SCORE.SYSTEM.DIHEDRAL>
0

>  <SCORE.SYSTEM.SOLV>
0

>  <SCORE.SYSTEM.norm>
0

>  <SCORE.heavy>
12

>  <SCORE.norm>
-0.467354

>  <RMSD>
14.610

$$$$
ligand
 OpenBabel11021811503D
libRbt.so/2013.1/901 2013/11/27
 12 13  0  0  0  0  0  0  0  0999 V2000
   -8.5904   16.2310   -0.6650 C   0  0  0  0  0  0  0  0  0  0  0  0
   -6.7641   14.8270   -0.3071 C   0  0  0  0  0  0  0  0  0  0  0  0
   -9.0598   17.4164   -1.0437 N   0  0  0  0  0  0  0  0  0  0  0  0
   -5.4504   14.5777   -0.2757 N   0  0  0  0  0  0  0  0  0  0  0  0
   -7.2557   16.0219   -0.6609 N   0  0  0  0  0  0  0  0  0  0  0  0
   -9.4528   15.2499   -0.3181 N   0  0  0  0  0  0  0  0  0  0  0  0
   -8.0221   11.5412    0.8280 N   0  0  0  0  0  0  0  0  0  0  0  0
   -9.4024   11.7936    0.8062 C   0  0  0  0  0  0  0  0  0  0  0  0
   -9.8823   13.0675    0.4222 N   0  0  0  0  0  0  0  0  0  0  0  0
   -9.0038   14.0265    0.0581 C   0  0  0  0  0  0  0  0  0  0  0  0
   -7.6258   13.7873    0.0635 C   0  0  0  0  0  0  0  0  0  0  0  0
   -7.1142   12.5488    0.4464 C   0  0  0  0  0  0  0  0  0  0  0  0
  1  3  1  0  0  0  0
  1  5  1  0  0  0  0
  1  6  2  0  0  0  0
  2  5  2  0  0  0  0
  2 11  1  0  0  0  0
  2  4  1  0  0  0  0
  6 10  1  0  0  0  0
  7  8  2  0  0  0  0
  7 12  1  0  0  0  0
  8  9  1  0  0  0  0
  9 10  2  0  0  0  0
 10 11  1  0  0  0  0
 11 12  2  0  0  0  0
M  END
>  <CHROM.1>
-8.13930183,14.28717940,-0.06311572,1.50373004,0.04403657,-0.31424352

>  <Name>
ligand

>  <RI>
0

>  <Rbt.Current_Directory>
/home/itssahil/PROJECTS/Mol_Feturizer/New_Systems/rnas/4LX5

>  <Rbt.Executable>
rbdock ($Id: //depot/dev/client3/rdock/2013.1/src/exe/rbdock.cxx#4 $)

>  <Rbt.Library>
libRbt.so (2013.1, Build901 2013/11/27)

>  <Rbt.Parameter_File>
/export/apps/rDock/src/rDock_2013.1_src/data/scripts/dock_solv.prm

>  <Rbt.Receptor>
prm/blind_docking_40.prm

>  <SCORE>
-6.25832

>  <SCORE.INTER>
-6.25832

>  <SCORE.INTER.CONST>
1

>  <SCORE.INTER.POLAR>
0

>  <SCORE.INTER.ROT>
0

>  <SCORE.INTER.SOLV>
8.67031

>  <SCORE.INTER.VDW>
-10.6623

>  <SCORE.INTER.norm>
-0.521527

>  <SCORE.INTRA>
0

>  <SCORE.INTRA.DIHEDRAL>
0

>  <SCORE.INTRA.DIHEDRAL.0>
0

>  <SCORE.INTRA.POLAR>
0

>  <SCORE.INTRA.POLAR.0>
0

>  <SCORE.INTRA.REPUL>
0

>  <SCORE.INTRA.REPUL.0>
0

>  <SCORE.INTRA.SOLV>
0

>  <SCORE.INTRA.SOLV.lig_0>
-48.1583

>  <SCORE.INTRA.VDW>
0

>  <SCORE.INTRA.VDW.0>
0

>  <SCORE.INTRA.norm>
0

>  <SCORE.RESTR>
0

>  <SCORE.RESTR.CAVITY>
0

>  <SCORE.RESTR.norm>
0

>  <SCORE.SYSTEM>
0

>  <SCORE.SYSTEM.CONST>
0

>  <SCORE.SYSTEM.DIHEDRAL>
0

>  <SCORE.SYSTEM.SOLV>
0

>  <SCORE.SYSTEM.norm>
0

>  <SCORE.heavy>
12

>  <SCORE.norm>
-0.521527

>  <RMSD>
15.307

$$$$
ligand
 OpenBabel11021811503D
libRbt.so/2013.1/901 2013/11/27
 12 13  0  0  0  0  0  0  0  0999 V2000
   -8.7144   16.0880    0.2416 C   0  0  0  0  0  0  0  0  0  0  0  0
   -8.3969   15.1198    2.3385 C   0  0  0  0  0  0  0  0  0  0  0  0
   -8.6496   17.1628   -0.5391 N   0  0  0  0  0  0  0  0  0  0  0  0
   -8.0704   15.1815    3.6341 N   0  0  0  0  0  0  0  0  0  0  0  0
   -8.3629   16.1962    1.5416 N   0  0  0  0  0  0  0  0  0  0  0  0
   -9.1028   14.9038   -0.2813 N   0  0  0  0  0  0  0  0  0  0  0  0
   -9.2776   11.5362    2.1152 N   0  0  0  0  0  0  0  0  0  0  0  0
   -9.6299   11.4610    0.7588 C   0  0  0  0  0  0  0  0  0  0  0  0
   -9.5763   12.6195   -0.0509 N   0  0  0  0  0  0  0  0  0  0  0  0
   -9.1642   13.7877    0.4871 C   0  0  0  0  0  0  0  0  0  0  0  0
   -8.7987   13.8768    1.8342 C   0  0  0  0  0  0  0  0  0  0  0  0
   -8.8491   12.7600    2.6664 C   0  0  0  0  0  0  0  0  0  0  0  0
  1  3  1  0  0  0  0
  1  5  1  0  0  0  0
  1  6  2  0  0  0  0
  2  5  2  0  0  0  0
  2 11  1  0  0  0  0
  2  4  1  0  0  0  0
  6 10  1  0  0  0  0
  7  8  2  0  0  0  0
  7 12  1  0  0  0  0
  8  9  1  0  0  0  0
  9 10  2  0  0  0  0
 10 11  1  0  0  0  0
 11 12  2  0  0  0  0
M  END
>  <CHROM.1>
-8.87943822,14.25325962,1.21665200,1.02284628,-1.24479070,-0.73881298

>  <Name>
ligand

>  <RI>
0

>  <Rbt.Current_Directory>
/home/itssahil/PROJECTS/Mol_Feturizer/New_Systems/rnas/4LX5

>  <Rbt.Executable>
rbdock ($Id: //depot/dev/client3/rdock/2013.1/src/exe/rbdock.cxx#4 $)

>  <Rbt.Library>
libRbt.so (2013.1, Build901 2013/11/27)

>  <Rbt.Parameter_File>
/export/apps/rDock/src/rDock_2013.1_src/data/scripts/dock_solv.prm

>  <Rbt.Receptor>
prm/blind_docking_20.prm

>  <SCORE>
-5.45644

>  <SCORE.INTER>
-5.45644

>  <SCORE.INTER.CONST>
1

>  <SCORE.INTER.POLAR>
0

>  <SCORE.INTER.ROT>
0

>  <SCORE.INTER.SOLV>
3.8151

>  <SCORE.INTER.VDW>
-8.50933

>  <SCORE.INTER.norm>
-0.454703

>  <SCORE.INTRA>
0

>  <SCORE.INTRA.DIHEDRAL>
0

>  <SCORE.INTRA.DIHEDRAL.0>
0

>  <SCORE.INTRA.POLAR>
0

>  <SCORE.INTRA.POLAR.0>
0

>  <SCORE.INTRA.REPUL>
0

>  <SCORE.INTRA.REPUL.0>
0

>  <SCORE.INTRA.SOLV>
0

>  <SCORE.INTRA.SOLV.lig_0>
-48.1583

>  <SCORE.INTRA.VDW>
0

>  <SCORE.INTRA.VDW.0>
0

>  <SCORE.INTRA.norm>
0

>  <SCORE.RESTR>
0

>  <SCORE.RESTR.CAVITY>
0

>  <SCORE.RESTR.norm>
0

>  <SCORE.SYSTEM>
0

>  <SCORE.SYSTEM.CONST>
0

>  <SCORE.SYSTEM.DIHEDRAL>
0

>  <SCORE.SYSTEM.SOLV>
0

>  <SCORE.SYSTEM.norm>
0

>  <SCORE.heavy>
12

>  <SCORE.norm>
-0.454703

>  <RMSD>
15.775

$$$$
ligand
 OpenBabel11021811503D
libRbt.so/2013.1/901 2013/11/27
 12 13  0  0  0  0  0  0  0  0999 V2000
   -8.2740   12.8967    4.8010 C   0  0  0  0  0  0  0  0  0  0  0  0
   -8.1304   14.4523    3.0706 C   0  0  0  0  0  0  0  0  0  0  0  0
   -8.0945   12.6005    6.0851 N   0  0  0  0  0  0  0  0  0  0  0  0
   -7.7976   15.6517    2.5811 N   0  0  0  0  0  0  0  0  0  0  0  0
   -7.9340   14.1257    4.3549 N   0  0  0  0  0  0  0  0  0  0  0  0
   -8.8165   11.9774    3.9720 N   0  0  0  0  0  0  0  0  0  0  0  0
   -9.4208   12.8845   -0.0188 N   0  0  0  0  0  0  0  0  0  0  0  0
   -9.7669   11.6199    0.4818 C   0  0  0  0  0  0  0  0  0  0  0  0
   -9.5480   11.3152    1.8456 N   0  0  0  0  0  0  0  0  0  0  0  0
   -9.0250   12.2562    2.6610 C   0  0  0  0  0  0  0  0  0  0  0  0
   -8.6855   13.5249    2.1802 C   0  0  0  0  0  0  0  0  0  0  0  0
   -8.8758   13.8589    0.8406 C   0  0  0  0  0  0  0  0  0  0  0  0
  1  3  1  0  0  0  0
  1  5  1  0  0  0  0
  1  6  2  0  0  0  0
  2  5  2  0  0  0  0
  2 11  1  0  0  0  0
  2  4  1  0  0  0  0
  6 10  1  0  0  0  0
  7  8  2  0  0  0  0
  7 12  1  0  0  0  0
  8  9  1  0  0  0  0
  9 10  2  0  0  0  0
 10 11  1  0  0  0  0
 11 12  2  0  0  0  0
M  END
>  <CHROM.1>
-8.69008848,13.09665594,2.76850785,0.77048755,1.16148866,2.14596705

>  <Name>
ligand

>  <RI>
0

>  <Rbt.Current_Directory>
/home/itssahil/PROJECTS/Mol_Feturizer/New_Systems/rnas/4LX5

>  <Rbt.Executable>
rbdock ($Id: //depot/dev/client3/rdock/2013.1/src/exe/rbdock.cxx#4 $)

>  <Rbt.Library>
libRbt.so (2013.1, Build901 2013/11/27)

>  <Rbt.Parameter_File>
/export/apps/rDock/src/rDock_2013.1_src/data/scripts/dock_solv.prm

>  <Rbt.Receptor>
prm/blind_docking_20.prm

>  <SCORE>
-5.78856

>  <SCORE.INTER>
-5.78856

>  <SCORE.INTER.CONST>
1

>  <SCORE.INTER.POLAR>
0

>  <SCORE.INTER.ROT>
0

>  <SCORE.INTER.SOLV>
2.76941

>  <SCORE.INTER.VDW>
-8.38218

>  <SCORE.INTER.norm>
-0.48238

>  <SCORE.INTRA>
0

>  <SCORE.INTRA.DIHEDRAL>
0

>  <SCORE.INTRA.DIHEDRAL.0>
0

>  <SCORE.INTRA.POLAR>
0

>  <SCORE.INTRA.POLAR.0>
0

>  <SCORE.INTRA.REPUL>
0

>  <SCORE.INTRA.REPUL.0>
0

>  <SCORE.INTRA.SOLV>
0

>  <SCORE.INTRA.SOLV.lig_0>
-48.1583

>  <SCORE.INTRA.VDW>
0

>  <SCORE.INTRA.VDW.0>
0

>  <SCORE.INTRA.norm>
0

>  <SCORE.RESTR>
0

>  <SCORE.RESTR.CAVITY>
0

>  <SCORE.RESTR.norm>
0

>  <SCORE.SYSTEM>
0

>  <SCORE.SYSTEM.CONST>
0

>  <SCORE.SYSTEM.DIHEDRAL>
0

>  <SCORE.SYSTEM.SOLV>
0

>  <SCORE.SYSTEM.norm>
0

>  <SCORE.heavy>
12

>  <SCORE.norm>
-0.48238

>  <RMSD>
16.000

$$$$
ligand
 OpenBabel11021811503D
libRbt.so/2013.1/901 2013/11/27
 12 13  0  0  0  0  0  0  0  0999 V2000
   -2.1447   29.7912   -5.6085 C   0  0  0  0  0  0  0  0  0  0  0  0
   -4.2270   28.8810   -5.0885 C   0  0  0  0  0  0  0  0  0  0  0  0
   -0.8933   30.0558   -5.2439 N   0  0  0  0  0  0  0  0  0  0  0  0
   -5.0839   28.2871   -4.2506 N   0  0  0  0  0  0  0  0  0  0  0  0
   -2.9705   29.1790   -4.7319 N   0  0  0  0  0  0  0  0  0  0  0  0
   -2.5609   30.1127   -6.8535 N   0  0  0  0  0  0  0  0  0  0  0  0
   -6.4370   29.2675   -8.0268 N   0  0  0  0  0  0  0  0  0  0  0  0
   -5.5490   29.8979   -8.9121 C   0  0  0  0  0  0  0  0  0  0  0  0
   -4.2284   30.1916   -8.4993 N   0  0  0  0  0  0  0  0  0  0  0  0
   -3.8269   29.8417   -7.2582 C   0  0  0  0  0  0  0  0  0  0  0  0
   -4.6961   29.2028   -6.3680 C   0  0  0  0  0  0  0  0  0  0  0  0
   -6.0078   28.9068   -6.7342 C   0  0  0  0  0  0  0  0  0  0  0  0
  1  3  1  0  0  0  0
  1  5  1  0  0  0  0
  1  6  2  0  0  0  0
  2  5  2  0  0  0  0
  2 11  1  0  0  0  0
  2  4  1  0  0  0  0
  6 10  1  0  0  0  0
  7  8  2  0  0  0  0
  7 12  1  0  0  0  0
  8  9  1  0  0  0  0
  9 10  2  0  0  0  0
 10 11  1  0  0  0  0
 11 12  2  0  0  0  0
M  END
>  <CHROM.1>
-4.02477276,29.47158519,-6.44951351,-0.61415200,-0.30354256,-1.20733953

>  <Name>
ligand

>  <RI>
0

>  <Rbt.Current_Directory>
/home/itssahil/PROJECTS/Mol_Feturizer/New_Systems/rnas/4LX5

>  <Rbt.Executable>
rbdock ($Id: //depot/dev/client3/rdock/2013.1/src/exe/rbdock.cxx#4 $)

>  <Rbt.Library>
libRbt.so (2013.1, Build901 2013/11/27)

>  <Rbt.Parameter_File>
/export/apps/rDock/src/rDock_2013.1_src/data/scripts/dock_solv.prm

>  <Rbt.Receptor>
prm/blind_docking_80.prm

>  <SCORE>
-6.3524

>  <SCORE.INTER>
-6.3524

>  <SCORE.INTER.CONST>
1

>  <SCORE.INTER.POLAR>
0

>  <SCORE.INTER.ROT>
0

>  <SCORE.INTER.SOLV>
2.88791

>  <SCORE.INTER.VDW>
-8.79757

>  <SCORE.INTER.norm>
-0.529367

>  <SCORE.INTRA>
0

>  <SCORE.INTRA.DIHEDRAL>
0

>  <SCORE.INTRA.DIHEDRAL.0>
0

>  <SCORE.INTRA.POLAR>
0

>  <SCORE.INTRA.POLAR.0>
0

>  <SCORE.INTRA.REPUL>
0

>  <SCORE.INTRA.REPUL.0>
0

>  <SCORE.INTRA.SOLV>
0

>  <SCORE.INTRA.SOLV.lig_0>
-48.1583

>  <SCORE.INTRA.VDW>
0

>  <SCORE.INTRA.VDW.0>
0

>  <SCORE.INTRA.norm>
0

>  <SCORE.RESTR>
0

>  <SCORE.RESTR.CAVITY>
0

>  <SCORE.RESTR.norm>
0

>  <SCORE.SYSTEM>
0

>  <SCORE.SYSTEM.CONST>
0

>  <SCORE.SYSTEM.DIHEDRAL>
0

>  <SCORE.SYSTEM.SOLV>
0

>  <SCORE.SYSTEM.norm>
0

>  <SCORE.heavy>
12

>  <SCORE.norm>
-0.529367

>  <RMSD>
18.877

$$$$
ligand
 OpenBabel11021811503D
libRbt.so/2013.1/901 2013/11/27
 12 13  0  0  0  0  0  0  0  0999 V2000
  -13.5009   30.0558   -3.6687 C   0  0  0  0  0  0  0  0  0  0  0  0
  -15.6226   30.9542   -4.0233 C   0  0  0  0  0  0  0  0  0  0  0  0
  -12.2237   30.2414   -3.3473 N   0  0  0  0  0  0  0  0  0  0  0  0
  -16.4751   31.9818   -4.1042 N   0  0  0  0  0  0  0  0  0  0  0  0
  -14.3273   31.1230   -3.7262 N   0  0  0  0  0  0  0  0  0  0  0  0
  -13.9563   28.8054   -3.9050 N   0  0  0  0  0  0  0  0  0  0  0  0
  -17.9325   28.1948   -4.8703 N   0  0  0  0  0  0  0  0  0  0  0  0
  -17.0456   27.1097   -4.7958 C   0  0  0  0  0  0  0  0  0  0  0  0
  -15.6857   27.3288   -4.4744 N   0  0  0  0  0  0  0  0  0  0  0  0
  -15.2568   28.5840   -4.2204 C   0  0  0  0  0  0  0  0  0  0  0  0
  -16.1305   29.6746   -4.2793 C   0  0  0  0  0  0  0  0  0  0  0  0
  -17.4746   29.5003   -4.6035 C   0  0  0  0  0  0  0  0  0  0  0  0
  1  3  1  0  0  0  0
  1  5  1  0  0  0  0
  1  6  2  0  0  0  0
  2  5  2  0  0  0  0
  2 11  1  0  0  0  0
  2  4  1  0  0  0  0
  6 10  1  0  0  0  0
  7  8  2  0  0  0  0
  7 12  1  0  0  0  0
  8  9  1  0  0  0  0
  9 10  2  0  0  0  0
 10 11  1  0  0  0  0
 11 12  2  0  0  0  0
M  END
>  <CHROM.1>
-15.44096323,29.47430012,-4.16077347,-0.59508921,0.21800780,-3.02507904

>  <Name>
ligand

>  <RI>
0

>  <Rbt.Current_Directory>
/home/itssahil/PROJECTS/Mol_Feturizer/New_Systems/rnas/4LX5

>  <Rbt.Executable>
rbdock ($Id: //depot/dev/client3/rdock/2013.1/src/exe/rbdock.cxx#4 $)

>  <Rbt.Library>
libRbt.so (2013.1, Build901 2013/11/27)

>  <Rbt.Parameter_File>
/export/apps/rDock/src/rDock_2013.1_src/data/scripts/dock_solv.prm

>  <Rbt.Receptor>
prm/blind_docking_80.prm

>  <SCORE>
-8.03977

>  <SCORE.INTER>
-8.03977

>  <SCORE.INTER.CONST>
1

>  <SCORE.INTER.POLAR>
0

>  <SCORE.INTER.ROT>
0

>  <SCORE.INTER.SOLV>
5.02369

>  <SCORE.INTER.VDW>
-10.6344

>  <SCORE.INTER.norm>
-0.669981

>  <SCORE.INTRA>
0

>  <SCORE.INTRA.DIHEDRAL>
0

>  <SCORE.INTRA.DIHEDRAL.0>
0

>  <SCORE.INTRA.POLAR>
0

>  <SCORE.INTRA.POLAR.0>
0

>  <SCORE.INTRA.REPUL>
0

>  <SCORE.INTRA.REPUL.0>
0

>  <SCORE.INTRA.SOLV>
0

>  <SCORE.INTRA.SOLV.lig_0>
-48.1583

>  <SCORE.INTRA.VDW>
0

>  <SCORE.INTRA.VDW.0>
0

>  <SCORE.INTRA.norm>
0

>  <SCORE.RESTR>
0

>  <SCORE.RESTR.CAVITY>
0

>  <SCORE.RESTR.norm>
0

>  <SCORE.SYSTEM>
0

>  <SCORE.SYSTEM.CONST>
0

>  <SCORE.SYSTEM.DIHEDRAL>
0

>  <SCORE.SYSTEM.SOLV>
0

>  <SCORE.SYSTEM.norm>
0

>  <SCORE.heavy>
12

>  <SCORE.norm>
-0.669981

>  <RMSD>
26.066

$$$$
ligand
 OpenBabel11021811503D
libRbt.so/2013.1/901 2013/11/27
 12 13  0  0  0  0  0  0  0  0999 V2000
  -13.5292   30.0691   -3.6075 C   0  0  0  0  0  0  0  0  0  0  0  0
  -15.6413   30.9648   -4.0218 C   0  0  0  0  0  0  0  0  0  0  0  0
  -12.2601   30.2573   -3.2571 N   0  0  0  0  0  0  0  0  0  0  0  0
  -16.4910   31.9918   -4.1331 N   0  0  0  0  0  0  0  0  0  0  0  0
  -14.3534   31.1360   -3.6951 N   0  0  0  0  0  0  0  0  0  0  0  0
  -13.9795   28.8167   -3.8428 N   0  0  0  0  0  0  0  0  0  0  0  0
  -17.9315   28.1981   -4.8980 N   0  0  0  0  0  0  0  0  0  0  0  0
  -17.0473   27.1135   -4.7917 C   0  0  0  0  0  0  0  0  0  0  0  0
  -15.6954   27.3352   -4.4397 N   0  0  0  0  0  0  0  0  0  0  0  0
  -15.2721   28.5927   -4.1874 C   0  0  0  0  0  0  0  0  0  0  0  0
  -16.1435   29.6829   -4.2778 C   0  0  0  0  0  0  0  0  0  0  0  0
  -17.4795   29.5059   -4.6327 C   0  0  0  0  0  0  0  0  0  0  0  0
  1  3  1  0  0  0  0
  1  5  1  0  0  0  0
  1  6  2  0  0  0  0
  2  5  2  0  0  0  0
  2 11  1  0  0  0  0
  2  4  1  0  0  0  0
  6 10  1  0  0  0  0
  7  8  2  0  0  0  0
  7 12  1  0  0  0  0
  8  9  1  0  0  0  0
  9 10  2  0  0  0  0
 10 11  1  0  0  0  0
 11 12  2  0  0  0  0
M  END
>  <CHROM.1>
-15.45718441,29.48354864,-4.14071390,-0.59742488,0.24207682,-3.03409669

>  <Name>
ligand

>  <RI>
0

>  <Rbt.Current_Directory>
/home/itssahil/PROJECTS/Mol_Feturizer/New_Systems/rnas/4LX5

>  <Rbt.Executable>
rbdock ($Id: //depot/dev/client3/rdock/2013.1/src/exe/rbdock.cxx#4 $)

>  <Rbt.Library>
libRbt.so (2013.1, Build901 2013/11/27)

>  <Rbt.Parameter_File>
/export/apps/rDock/src/rDock_2013.1_src/data/scripts/dock_solv.prm

>  <Rbt.Receptor>
prm/blind_docking_80.prm

>  <SCORE>
-8.01213

>  <SCORE.INTER>
-8.01213

>  <SCORE.INTER.CONST>
1

>  <SCORE.INTER.POLAR>
0

>  <SCORE.INTER.ROT>
0

>  <SCORE.INTER.SOLV>
5.07812

>  <SCORE.INTER.VDW>
-10.6341

>  <SCORE.INTER.norm>
-0.667677

>  <SCORE.INTRA>
0

>  <SCORE.INTRA.DIHEDRAL>
0

>  <SCORE.INTRA.DIHEDRAL.0>
0

>  <SCORE.INTRA.POLAR>
0

>  <SCORE.INTRA.POLAR.0>
0

>  <SCORE.INTRA.REPUL>
0

>  <SCORE.INTRA.REPUL.0>
0

>  <SCORE.INTRA.SOLV>
0

>  <SCORE.INTRA.SOLV.lig_0>
-48.1583

>  <SCORE.INTRA.VDW>
0

>  <SCORE.INTRA.VDW.0>
0

>  <SCORE.INTRA.norm>
0

>  <SCORE.RESTR>
0

>  <SCORE.RESTR.CAVITY>
0

>  <SCORE.RESTR.norm>
0

>  <SCORE.SYSTEM>
0

>  <SCORE.SYSTEM.CONST>
0

>  <SCORE.SYSTEM.DIHEDRAL>
0

>  <SCORE.SYSTEM.SOLV>
0

>  <SCORE.SYSTEM.norm>
0

>  <SCORE.heavy>
12

>  <SCORE.norm>
-0.667677

>  <RMSD>
26.080

$$$$
ligand
 OpenBabel11021811503D
libRbt.so/2013.1/901 2013/11/27
 12 13  0  0  0  0  0  0  0  0999 V2000
  -13.6040   30.2067   -3.6450 C   0  0  0  0  0  0  0  0  0  0  0  0
  -15.7429   31.0181   -4.0937 C   0  0  0  0  0  0  0  0  0  0  0  0
  -12.3435   30.4478   -3.2958 N   0  0  0  0  0  0  0  0  0  0  0  0
  -16.6260   32.0122   -4.2389 N   0  0  0  0  0  0  0  0  0  0  0  0
  -14.4630   31.2421   -3.7676 N   0  0  0  0  0  0  0  0  0  0  0  0
  -14.0109   28.9333   -3.8443 N   0  0  0  0  0  0  0  0  0  0  0  0
  -17.9351   28.1511   -4.8950 N   0  0  0  0  0  0  0  0  0  0  0  0
  -17.0155   27.1005   -4.7530 C   0  0  0  0  0  0  0  0  0  0  0  0
  -15.6735   27.3779   -4.4028 N   0  0  0  0  0  0  0  0  0  0  0  0
  -15.2937   28.6559   -4.1868 C   0  0  0  0  0  0  0  0  0  0  0  0
  -16.2007   29.7130   -4.3130 C   0  0  0  0  0  0  0  0  0  0  0  0
  -17.5284   29.4807   -4.6673 C   0  0  0  0  0  0  0  0  0  0  0  0
  1  3  1  0  0  0  0
  1  5  1  0  0  0  0
  1  6  2  0  0  0  0
  2  5  2  0  0  0  0
  2 11  1  0  0  0  0
  2  4  1  0  0  0  0
  6 10  1  0  0  0  0
  7  8  2  0  0  0  0
  7 12  1  0  0  0  0
  8  9  1  0  0  0  0
  9 10  2  0  0  0  0
 10 11  1  0  0  0  0
 11 12  2  0  0  0  0
M  END
>  <CHROM.1>
-15.50872843,29.54099564,-4.16750242,-0.63224381,0.24297650,-3.05564703

>  <Name>
ligand

>  <RI>
0

>  <Rbt.Current_Directory>
/home/itssahil/PROJECTS/Mol_Feturizer/New_Systems/rnas/4LX5

>  <Rbt.Executable>
rbdock ($Id: //depot/dev/client3/rdock/2013.1/src/exe/rbdock.cxx#4 $)

>  <Rbt.Library>
libRbt.so (2013.1, Build901 2013/11/27)

>  <Rbt.Parameter_File>
/export/apps/rDock/src/rDock_2013.1_src/data/scripts/dock_solv.prm

>  <Rbt.Receptor>
prm/blind_docking_80.prm

>  <SCORE>
-8.10665

>  <SCORE.INTER>
-8.10665

>  <SCORE.INTER.CONST>
1

>  <SCORE.INTER.POLAR>
0

>  <SCORE.INTER.ROT>
0

>  <SCORE.INTER.SOLV>
5.29115

>  <SCORE.INTER.VDW>
-10.7681

>  <SCORE.INTER.norm>
-0.675554

>  <SCORE.INTRA>
0

>  <SCORE.INTRA.DIHEDRAL>
0

>  <SCORE.INTRA.DIHEDRAL.0>
0

>  <SCORE.INTRA.POLAR>
0

>  <SCORE.INTRA.POLAR.0>
0

>  <SCORE.INTRA.REPUL>
0

>  <SCORE.INTRA.REPUL.0>
0

>  <SCORE.INTRA.SOLV>
0

>  <SCORE.INTRA.SOLV.lig_0>
-48.1583

>  <SCORE.INTRA.VDW>
0

>  <SCORE.INTRA.VDW.0>
0

>  <SCORE.INTRA.norm>
0

>  <SCORE.RESTR>
0

>  <SCORE.RESTR.CAVITY>
0

>  <SCORE.RESTR.norm>
0

>  <SCORE.SYSTEM>
0

>  <SCORE.SYSTEM.CONST>
0

>  <SCORE.SYSTEM.DIHEDRAL>
0

>  <SCORE.SYSTEM.SOLV>
0

>  <SCORE.SYSTEM.norm>
0

>  <SCORE.heavy>
12

>  <SCORE.norm>
-0.675554

>  <RMSD>
26.153

$$$$
ligand
 OpenBabel11021811503D
libRbt.so/2013.1/901 2013/11/27
 12 13  0  0  0  0  0  0  0  0999 V2000
  -13.6104   30.2020   -3.6333 C   0  0  0  0  0  0  0  0  0  0  0  0
  -15.7500   31.0188   -4.0692 C   0  0  0  0  0  0  0  0  0  0  0  0
  -12.3494   30.4390   -3.2833 N   0  0  0  0  0  0  0  0  0  0  0  0
  -16.6332   32.0145   -4.2014 N   0  0  0  0  0  0  0  0  0  0  0  0
  -14.4695   31.2389   -3.7425 N   0  0  0  0  0  0  0  0  0  0  0  0
  -14.0178   28.9311   -3.8466 N   0  0  0  0  0  0  0  0  0  0  0  0
  -17.9437   28.1614   -4.8999 N   0  0  0  0  0  0  0  0  0  0  0  0
  -17.0240   27.1091   -4.7715 C   0  0  0  0  0  0  0  0  0  0  0  0
  -15.6814   27.3824   -4.4203 N   0  0  0  0  0  0  0  0  0  0  0  0
  -15.3012   28.6577   -4.1902 C   0  0  0  0  0  0  0  0  0  0  0  0
  -16.2082   29.7163   -4.3027 C   0  0  0  0  0  0  0  0  0  0  0  0
  -17.5365   29.4882   -4.6576 C   0  0  0  0  0  0  0  0  0  0  0  0
  1  3  1  0  0  0  0
  1  5  1  0  0  0  0
  1  6  2  0  0  0  0
  2  5  2  0  0  0  0
  2 11  1  0  0  0  0
  2  4  1  0  0  0  0
  6 10  1  0  0  0  0
  7  8  2  0  0  0  0
  7 12  1  0  0  0  0
  8  9  1  0  0  0  0
  9 10  2  0  0  0  0
 10 11  1  0  0  0  0
 11 12  2  0  0  0  0
M  END
>  <CHROM.1>
-15.51606515,29.54258963,-4.16034553,-0.63199641,0.24139013,-3.04417895

>  <Name>
ligand

>  <RI>
0

>  <Rbt.Current_Directory>
/home/itssahil/PROJECTS/Mol_Feturizer/New_Systems/rnas/4LX5

>  <Rbt.Executable>
rbdock ($Id: //depot/dev/client3/rdock/2013.1/src/exe/rbdock.cxx#4 $)

>  <Rbt.Library>
libRbt.so (2013.1, Build901 2013/11/27)

>  <Rbt.Parameter_File>
/export/apps/rDock/src/rDock_2013.1_src/data/scripts/dock_solv.prm

>  <Rbt.Receptor>
prm/blind_docking_60.prm

>  <SCORE>
-8.09744

>  <SCORE.INTER>
-8.09744

>  <SCORE.INTER.CONST>
1

>  <SCORE.INTER.POLAR>
0

>  <SCORE.INTER.ROT>
0

>  <SCORE.INTER.SOLV>
5.25087

>  <SCORE.INTER.VDW>
-10.7486

>  <SCORE.INTER.norm>
-0.674786

>  <SCORE.INTRA>
0

>  <SCORE.INTRA.DIHEDRAL>
0

>  <SCORE.INTRA.DIHEDRAL.0>
0

>  <SCORE.INTRA.POLAR>
0

>  <SCORE.INTRA.POLAR.0>
0

>  <SCORE.INTRA.REPUL>
0

>  <SCORE.INTRA.REPUL.0>
0

>  <SCORE.INTRA.SOLV>
0

>  <SCORE.INTRA.SOLV.lig_0>
-48.1583

>  <SCORE.INTRA.VDW>
0

>  <SCORE.INTRA.VDW.0>
0

>  <SCORE.INTRA.norm>
0

>  <SCORE.RESTR>
0

>  <SCORE.RESTR.CAVITY>
0

>  <SCORE.RESTR.norm>
0

>  <SCORE.SYSTEM>
0

>  <SCORE.SYSTEM.CONST>
0

>  <SCORE.SYSTEM.DIHEDRAL>
0

>  <SCORE.SYSTEM.SOLV>
0

>  <SCORE.SYSTEM.norm>
0

>  <SCORE.heavy>
12

>  <SCORE.norm>
-0.674786

>  <RMSD>
26.159

$$$$
ligand
 OpenBabel11021811503D
libRbt.so/2013.1/901 2013/11/27
 12 13  0  0  0  0  0  0  0  0999 V2000
  -14.4282   28.5325   -4.8200 C   0  0  0  0  0  0  0  0  0  0  0  0
  -14.0225   30.7577   -4.2553 C   0  0  0  0  0  0  0  0  0  0  0  0
  -13.9524   27.3381   -5.1604 N   0  0  0  0  0  0  0  0  0  0  0  0
  -13.2078   31.8006   -4.0618 N   0  0  0  0  0  0  0  0  0  0  0  0
  -13.5655   29.5534   -4.6233 N   0  0  0  0  0  0  0  0  0  0  0  0
  -15.7587   28.6990   -4.6503 N   0  0  0  0  0  0  0  0  0  0  0  0
  -17.2629   32.3940   -3.5552 N   0  0  0  0  0  0  0  0  0  0  0  0
  -18.1281   31.3087   -3.7629 C   0  0  0  0  0  0  0  0  0  0  0  0
  -17.6059   30.0514   -4.1465 N   0  0  0  0  0  0  0  0  0  0  0  0
  -16.2713   29.9017   -4.2890 C   0  0  0  0  0  0  0  0  0  0  0  0
  -15.3948   30.9703   -4.0744 C   0  0  0  0  0  0  0  0  0  0  0  0
  -15.8721   32.2269   -3.7066 C   0  0  0  0  0  0  0  0  0  0  0  0
  1  3  1  0  0  0  0
  1  5  1  0  0  0  0
  1  6  2  0  0  0  0
  2  5  2  0  0  0  0
  2 11  1  0  0  0  0
  2  4  1  0  0  0  0
  6 10  1  0  0  0  0
  7  8  2  0  0  0  0
  7 12  1  0  0  0  0
  8  9  1  0  0  0  0
  9 10  2  0  0  0  0
 10 11  1  0  0  0  0
 11 12  2  0  0  0  0
M  END
>  <CHROM.1>
-15.43817726,30.26984166,-4.26705012,0.77698478,-0.08282057,-2.88412714

>  <Name>
ligand

>  <RI>
0

>  <Rbt.Current_Directory>
/home/itssahil/PROJECTS/Mol_Feturizer/New_Systems/rnas/4LX5

>  <Rbt.Executable>
rbdock ($Id: //depot/dev/client3/rdock/2013.1/src/exe/rbdock.cxx#4 $)

>  <Rbt.Library>
libRbt.so (2013.1, Build901 2013/11/27)

>  <Rbt.Parameter_File>
/export/apps/rDock/src/rDock_2013.1_src/data/scripts/dock_solv.prm

>  <Rbt.Receptor>
prm/blind_docking_80.prm

>  <SCORE>
-6.29653

>  <SCORE.INTER>
-6.29653

>  <SCORE.INTER.CONST>
1

>  <SCORE.INTER.POLAR>
0

>  <SCORE.INTER.ROT>
0

>  <SCORE.INTER.SOLV>
5.10399

>  <SCORE.INTER.VDW>
-9.49902

>  <SCORE.INTER.norm>
-0.524711

>  <SCORE.INTRA>
0

>  <SCORE.INTRA.DIHEDRAL>
0

>  <SCORE.INTRA.DIHEDRAL.0>
0

>  <SCORE.INTRA.POLAR>
0

>  <SCORE.INTRA.POLAR.0>
0

>  <SCORE.INTRA.REPUL>
0

>  <SCORE.INTRA.REPUL.0>
0

>  <SCORE.INTRA.SOLV>
0

>  <SCORE.INTRA.SOLV.lig_0>
-48.1583

>  <SCORE.INTRA.VDW>
0

>  <SCORE.INTRA.VDW.0>
0

>  <SCORE.INTRA.norm>
0

>  <SCORE.RESTR>
0

>  <SCORE.RESTR.CAVITY>
0

>  <SCORE.RESTR.norm>
0

>  <SCORE.SYSTEM>
0

>  <SCORE.SYSTEM.CONST>
0

>  <SCORE.SYSTEM.DIHEDRAL>
0

>  <SCORE.SYSTEM.SOLV>
0

>  <SCORE.SYSTEM.norm>
0

>  <SCORE.heavy>
12

>  <SCORE.norm>
-0.524711

>  <RMSD>
26.431

$$$$
ligand
 OpenBabel11021811503D
libRbt.so/2013.1/901 2013/11/27
 12 13  0  0  0  0  0  0  0  0999 V2000
  -16.5490   31.8161   -3.6206 C   0  0  0  0  0  0  0  0  0  0  0  0
  -14.7614   30.3841   -4.0553 C   0  0  0  0  0  0  0  0  0  0  0  0
  -16.9889   33.0451   -3.3659 N   0  0  0  0  0  0  0  0  0  0  0  0
  -13.4565   30.1298   -4.2022 N   0  0  0  0  0  0  0  0  0  0  0  0
  -15.2226   31.6098   -3.7732 N   0  0  0  0  0  0  0  0  0  0  0  0
  -17.4335   30.8023   -3.7495 N   0  0  0  0  0  0  0  0  0  0  0  0
  -16.0959   26.9764   -4.5788 N   0  0  0  0  0  0  0  0  0  0  0  0
  -17.4670   27.2298   -4.4191 C   0  0  0  0  0  0  0  0  0  0  0  0
  -17.9146   28.5392   -4.1263 N   0  0  0  0  0  0  0  0  0  0  0  0
  -17.0152   29.5415   -4.0237 C   0  0  0  0  0  0  0  0  0  0  0  0
  -15.6466   29.3076   -4.1914 C   0  0  0  0  0  0  0  0  0  0  0  0
  -15.1661   28.0293   -4.4696 C   0  0  0  0  0  0  0  0  0  0  0  0
  1  3  1  0  0  0  0
  1  5  1  0  0  0  0
  1  6  2  0  0  0  0
  2  5  2  0  0  0  0
  2 11  1  0  0  0  0
  2  4  1  0  0  0  0
  6 10  1  0  0  0  0
  7  8  2  0  0  0  0
  7 12  1  0  0  0  0
  8  9  1  0  0  0  0
  9 10  2  0  0  0  0
 10 11  1  0  0  0  0
 11 12  2  0  0  0  0
M  END
>  <CHROM.1>
-16.14633667,29.81489942,-4.04166873,1.48057613,0.08248515,0.18693199

>  <Name>
ligand

>  <RI>
0

>  <Rbt.Current_Directory>
/home/itssahil/PROJECTS/Mol_Feturizer/New_Systems/rnas/4LX5

>  <Rbt.Executable>
rbdock ($Id: //depot/dev/client3/rdock/2013.1/src/exe/rbdock.cxx#4 $)

>  <Rbt.Library>
libRbt.so (2013.1, Build901 2013/11/27)

>  <Rbt.Parameter_File>
/export/apps/rDock/src/rDock_2013.1_src/data/scripts/dock_solv.prm

>  <Rbt.Receptor>
prm/blind_docking_60.prm

>  <SCORE>
-10.1103

>  <SCORE.INTER>
-10.1103

>  <SCORE.INTER.CONST>
1

>  <SCORE.INTER.POLAR>
0

>  <SCORE.INTER.ROT>
0

>  <SCORE.INTER.SOLV>
6.80369

>  <SCORE.INTER.VDW>
-12.6081

>  <SCORE.INTER.norm>
-0.842522

>  <SCORE.INTRA>
0

>  <SCORE.INTRA.DIHEDRAL>
0

>  <SCORE.INTRA.DIHEDRAL.0>
0

>  <SCORE.INTRA.POLAR>
0

>  <SCORE.INTRA.POLAR.0>
0

>  <SCORE.INTRA.REPUL>
0

>  <SCORE.INTRA.REPUL.0>
0

>  <SCORE.INTRA.SOLV>
0

>  <SCORE.INTRA.SOLV.lig_0>
-48.1583

>  <SCORE.INTRA.VDW>
0

>  <SCORE.INTRA.VDW.0>
0

>  <SCORE.INTRA.norm>
0

>  <SCORE.RESTR>
0

>  <SCORE.RESTR.CAVITY>
0

>  <SCORE.RESTR.norm>
0

>  <SCORE.SYSTEM>
0

>  <SCORE.SYSTEM.CONST>
0

>  <SCORE.SYSTEM.DIHEDRAL>
0

>  <SCORE.SYSTEM.SOLV>
0

>  <SCORE.SYSTEM.norm>
0

>  <SCORE.heavy>
12

>  <SCORE.norm>
-0.842522

>  <RMSD>
26.770

$$$$
ligand
 OpenBabel11021811503D
libRbt.so/2013.1/901 2013/11/27
 12 13  0  0  0  0  0  0  0  0999 V2000
  -16.6496   31.7892   -3.6041 C   0  0  0  0  0  0  0  0  0  0  0  0
  -14.8079   30.4162   -4.0017 C   0  0  0  0  0  0  0  0  0  0  0  0
  -17.1327   32.9995   -3.3385 N   0  0  0  0  0  0  0  0  0  0  0  0
  -13.4918   30.2005   -4.1036 N   0  0  0  0  0  0  0  0  0  0  0  0
  -15.3131   31.6221   -3.7097 N   0  0  0  0  0  0  0  0  0  0  0  0
  -17.5002   30.7555   -3.7904 N   0  0  0  0  0  0  0  0  0  0  0  0
  -16.0269   26.9876   -4.6548 N   0  0  0  0  0  0  0  0  0  0  0  0
  -17.4095   27.2005   -4.5427 C   0  0  0  0  0  0  0  0  0  0  0  0
  -17.9040   28.4901   -4.2376 N   0  0  0  0  0  0  0  0  0  0  0  0
  -17.0372   29.5132   -4.0771 C   0  0  0  0  0  0  0  0  0  0  0  0
  -15.6572   29.3200   -4.1968 C   0  0  0  0  0  0  0  0  0  0  0  0
  -15.1313   28.0621   -4.4854 C   0  0  0  0  0  0  0  0  0  0  0  0
  1  3  1  0  0  0  0
  1  5  1  0  0  0  0
  1  6  2  0  0  0  0
  2  5  2  0  0  0  0
  2 11  1  0  0  0  0
  2  4  1  0  0  0  0
  6 10  1  0  0  0  0
  7  8  2  0  0  0  0
  7 12  1  0  0  0  0
  8  9  1  0  0  0  0
  9 10  2  0  0  0  0
 10 11  1  0  0  0  0
 11 12  2  0  0  0  0
M  END
>  <CHROM.1>
-16.17610604,29.81011685,-4.05499717,1.51484350,0.04999832,0.20815127

>  <Name>
ligand

>  <RI>
0

>  <Rbt.Current_Directory>
/home/itssahil/PROJECTS/Mol_Feturizer/New_Systems/rnas/4LX5

>  <Rbt.Executable>
rbdock ($Id: //depot/dev/client3/rdock/2013.1/src/exe/rbdock.cxx#4 $)

>  <Rbt.Library>
libRbt.so (2013.1, Build901 2013/11/27)

>  <Rbt.Parameter_File>
/export/apps/rDock/src/rDock_2013.1_src/data/scripts/dock_solv.prm

>  <Rbt.Receptor>
prm/blind_docking_60.prm

>  <SCORE>
-10.1831

>  <SCORE.INTER>
-10.1831

>  <SCORE.INTER.CONST>
1

>  <SCORE.INTER.POLAR>
0

>  <SCORE.INTER.ROT>
0

>  <SCORE.INTER.SOLV>
6.80353

>  <SCORE.INTER.VDW>
-12.6566

>  <SCORE.INTER.norm>
-0.848589

>  <SCORE.INTRA>
0

>  <SCORE.INTRA.DIHEDRAL>
0

>  <SCORE.INTRA.DIHEDRAL.0>
0

>  <SCORE.INTRA.POLAR>
0

>  <SCORE.INTRA.POLAR.0>
0

>  <SCORE.INTRA.REPUL>
0

>  <SCORE.INTRA.REPUL.0>
0

>  <SCORE.INTRA.SOLV>
0

>  <SCORE.INTRA.SOLV.lig_0>
-48.1583

>  <SCORE.INTRA.VDW>
0

>  <SCORE.INTRA.VDW.0>
0

>  <SCORE.INTRA.norm>
0

>  <SCORE.RESTR>
0

>  <SCORE.RESTR.CAVITY>
0

>  <SCORE.RESTR.norm>
0

>  <SCORE.SYSTEM>
0

>  <SCORE.SYSTEM.CONST>
0

>  <SCORE.SYSTEM.DIHEDRAL>
0

>  <SCORE.SYSTEM.SOLV>
0

>  <SCORE.SYSTEM.norm>
0

>  <SCORE.heavy>
12

>  <SCORE.norm>
-0.848589

>  <RMSD>
26.801

$$$$
ligand
 OpenBabel11021811503D
libRbt.so/2013.1/901 2013/11/27
 12 13  0  0  0  0  0  0  0  0999 V2000
  -16.6150   31.8558   -3.6042 C   0  0  0  0  0  0  0  0  0  0  0  0
  -14.7779   30.4756   -3.9980 C   0  0  0  0  0  0  0  0  0  0  0  0
  -17.0942   33.0688   -3.3436 N   0  0  0  0  0  0  0  0  0  0  0  0
  -13.4626   30.2556   -4.1008 N   0  0  0  0  0  0  0  0  0  0  0  0
  -15.2792   31.6843   -3.7109 N   0  0  0  0  0  0  0  0  0  0  0  0
  -17.4689   30.8237   -3.7844 N   0  0  0  0  0  0  0  0  0  0  0  0
  -16.0077   27.0476   -4.6332 N   0  0  0  0  0  0  0  0  0  0  0  0
  -17.3896   27.2650   -4.5202 C   0  0  0  0  0  0  0  0  0  0  0  0
  -17.8799   28.5574   -4.2203 N   0  0  0  0  0  0  0  0  0  0  0  0
  -17.0099   29.5788   -4.0659 C   0  0  0  0  0  0  0  0  0  0  0  0
  -15.6306   29.3810   -4.1867 C   0  0  0  0  0  0  0  0  0  0  0  0
  -15.1088   28.1202   -4.4702 C   0  0  0  0  0  0  0  0  0  0  0  0
  1  3  1  0  0  0  0
  1  5  1  0  0  0  0
  1  6  2  0  0  0  0
  2  5  2  0  0  0  0
  2 11  1  0  0  0  0
  2  4  1  0  0  0  0
  6 10  1  0  0  0  0
  7  8  2  0  0  0  0
  7 12  1  0  0  0  0
  8  9  1  0  0  0  0
  9 10  2  0  0  0  0
 10 11  1  0  0  0  0
 11 12  2  0  0  0  0
M  END
>  <CHROM.1>
-16.14793009,29.87325356,-4.04649073,1.51170491,0.05084081,0.20361801

>  <Name>
ligand

>  <RI>
0

>  <Rbt.Current_Directory>
/home/itssahil/PROJECTS/Mol_Feturizer/New_Systems/rnas/4LX5

>  <Rbt.Executable>
rbdock ($Id: //depot/dev/client3/rdock/2013.1/src/exe/rbdock.cxx#4 $)

>  <Rbt.Library>
libRbt.so (2013.1, Build901 2013/11/27)

>  <Rbt.Parameter_File>
/export/apps/rDock/src/rDock_2013.1_src/data/scripts/dock_solv.prm

>  <Rbt.Receptor>
prm/blind_docking_80.prm

>  <SCORE>
-10.0677

>  <SCORE.INTER>
-10.0677

>  <SCORE.INTER.CONST>
1

>  <SCORE.INTER.POLAR>
0

>  <SCORE.INTER.ROT>
0

>  <SCORE.INTER.SOLV>
6.75903

>  <SCORE.INTER.VDW>
-12.5648

>  <SCORE.INTER.norm>
-0.838977

>  <SCORE.INTRA>
0

>  <SCORE.INTRA.DIHEDRAL>
0

>  <SCORE.INTRA.DIHEDRAL.0>
0

>  <SCORE.INTRA.POLAR>
0

>  <SCORE.INTRA.POLAR.0>
0

>  <SCORE.INTRA.REPUL>
0

>  <SCORE.INTRA.REPUL.0>
0

>  <SCORE.INTRA.SOLV>
0

>  <SCORE.INTRA.SOLV.lig_0>
-48.1583

>  <SCORE.INTRA.VDW>
0

>  <SCORE.INTRA.VDW.0>
0

>  <SCORE.INTRA.norm>
0

>  <SCORE.RESTR>
0

>  <SCORE.RESTR.CAVITY>
0

>  <SCORE.RESTR.norm>
0

>  <SCORE.SYSTEM>
0

>  <SCORE.SYSTEM.CONST>
0

>  <SCORE.SYSTEM.DIHEDRAL>
0

>  <SCORE.SYSTEM.SOLV>
0

>  <SCORE.SYSTEM.norm>
0

>  <SCORE.heavy>
12

>  <SCORE.norm>
-0.838977

>  <RMSD>
26.804

$$$$
ligand
 OpenBabel11021811503D
libRbt.so/2013.1/901 2013/11/27
 12 13  0  0  0  0  0  0  0  0999 V2000
  -16.6736   31.7826   -3.6219 C   0  0  0  0  0  0  0  0  0  0  0  0
  -14.8216   30.4182   -4.0006 C   0  0  0  0  0  0  0  0  0  0  0  0
  -17.1653   32.9915   -3.3657 N   0  0  0  0  0  0  0  0  0  0  0  0
  -13.5037   30.2095   -4.0930 N   0  0  0  0  0  0  0  0  0  0  0  0
  -15.3356   31.6226   -3.7181 N   0  0  0  0  0  0  0  0  0  0  0  0
  -17.5171   30.7431   -3.8081 N   0  0  0  0  0  0  0  0  0  0  0  0
  -16.0167   26.9793   -4.6433 N   0  0  0  0  0  0  0  0  0  0  0  0
  -17.4012   27.1847   -4.5412 C   0  0  0  0  0  0  0  0  0  0  0  0
  -17.9050   28.4730   -4.2459 N   0  0  0  0  0  0  0  0  0  0  0  0
  -17.0451   29.5020   -4.0853 C   0  0  0  0  0  0  0  0  0  0  0  0
  -15.6633   29.3161   -4.1953 C   0  0  0  0  0  0  0  0  0  0  0  0
  -15.1284   28.0597   -4.4739 C   0  0  0  0  0  0  0  0  0  0  0  0
  1  3  1  0  0  0  0
  1  5  1  0  0  0  0
  1  6  2  0  0  0  0
  2  5  2  0  0  0  0
  2 11  1  0  0  0  0
  2  4  1  0  0  0  0
  6 10  1  0  0  0  0
  7  8  2  0  0  0  0
  7 12  1  0  0  0  0
  8  9  1  0  0  0  0
  9 10  2  0  0  0  0
 10 11  1  0  0  0  0
 11 12  2  0  0  0  0
M  END
>  <CHROM.1>
-16.18591965,29.80391814,-4.05934829,1.52176634,0.04495935,0.20258523

>  <Name>
ligand

>  <RI>
0

>  <Rbt.Current_Directory>
/home/itssahil/PROJECTS/Mol_Feturizer/New_Systems/rnas/4LX5

>  <Rbt.Executable>
rbdock ($Id: //depot/dev/client3/rdock/2013.1/src/exe/rbdock.cxx#4 $)

>  <Rbt.Library>
libRbt.so (2013.1, Build901 2013/11/27)

>  <Rbt.Parameter_File>
/export/apps/rDock/src/rDock_2013.1_src/data/scripts/dock_solv.prm

>  <Rbt.Receptor>
prm/blind_docking_100.prm

>  <SCORE>
-10.2123

>  <SCORE.INTER>
-10.2123

>  <SCORE.INTER.CONST>
1

>  <SCORE.INTER.POLAR>
0

>  <SCORE.INTER.ROT>
0

>  <SCORE.INTER.SOLV>
6.85798

>  <SCORE.INTER.VDW>
-12.6942

>  <SCORE.INTER.norm>
-0.851022

>  <SCORE.INTRA>
0

>  <SCORE.INTRA.DIHEDRAL>
0

>  <SCORE.INTRA.DIHEDRAL.0>
0

>  <SCORE.INTRA.POLAR>
0

>  <SCORE.INTRA.POLAR.0>
0

>  <SCORE.INTRA.REPUL>
0

>  <SCORE.INTRA.REPUL.0>
0

>  <SCORE.INTRA.SOLV>
0

>  <SCORE.INTRA.SOLV.lig_0>
-48.1583

>  <SCORE.INTRA.VDW>
0

>  <SCORE.INTRA.VDW.0>
0

>  <SCORE.INTRA.norm>
0

>  <SCORE.RESTR>
0

>  <SCORE.RESTR.CAVITY>
0

>  <SCORE.RESTR.norm>
0

>  <SCORE.SYSTEM>
0

>  <SCORE.SYSTEM.CONST>
0

>  <SCORE.SYSTEM.DIHEDRAL>
0

>  <SCORE.SYSTEM.SOLV>
0

>  <SCORE.SYSTEM.norm>
0

>  <SCORE.heavy>
12

>  <SCORE.norm>
-0.851022

>  <RMSD>
26.807

$$$$
ligand
 OpenBabel11021811503D
libRbt.so/2013.1/901 2013/11/27
 12 13  0  0  0  0  0  0  0  0999 V2000
  -16.6740   31.7844   -3.6237 C   0  0  0  0  0  0  0  0  0  0  0  0
  -14.8217   30.4214   -4.0056 C   0  0  0  0  0  0  0  0  0  0  0  0
  -17.1661   32.9930   -3.3668 N   0  0  0  0  0  0  0  0  0  0  0  0
  -13.5038   30.2136   -4.1005 N   0  0  0  0  0  0  0  0  0  0  0  0
  -15.3360   31.6255   -3.7224 N   0  0  0  0  0  0  0  0  0  0  0  0
  -17.5170   30.7443   -3.8082 N   0  0  0  0  0  0  0  0  0  0  0  0
  -16.0154   26.9815   -4.6456 N   0  0  0  0  0  0  0  0  0  0  0  0
  -17.3999   27.1859   -4.5409 C   0  0  0  0  0  0  0  0  0  0  0  0
  -17.9041   28.4739   -4.2449 N   0  0  0  0  0  0  0  0  0  0  0  0
  -17.0446   29.5035   -4.0861 C   0  0  0  0  0  0  0  0  0  0  0  0
  -15.6629   29.3186   -4.1986 C   0  0  0  0  0  0  0  0  0  0  0  0
  -15.1276   28.0626   -4.4780 C   0  0  0  0  0  0  0  0  0  0  0  0
  1  3  1  0  0  0  0
  1  5  1  0  0  0  0
  1  6  2  0  0  0  0
  2  5  2  0  0  0  0
  2 11  1  0  0  0  0
  2  4  1  0  0  0  0
  6 10  1  0  0  0  0
  7  8  2  0  0  0  0
  7 12  1  0  0  0  0
  8  9  1  0  0  0  0
  9 10  2  0  0  0  0
 10 11  1  0  0  0  0
 11 12  2  0  0  0  0
M  END
>  <CHROM.1>
-16.18562508,29.80607514,-4.06177740,1.52212718,0.04693284,0.20240905

>  <Name>
ligand

>  <RI>
0

>  <Rbt.Current_Directory>
/home/itssahil/PROJECTS/Mol_Feturizer/New_Systems/rnas/4LX5

>  <Rbt.Executable>
rbdock ($Id: //depot/dev/client3/rdock/2013.1/src/exe/rbdock.cxx#4 $)

>  <Rbt.Library>
libRbt.so (2013.1, Build901 2013/11/27)

>  <Rbt.Parameter_File>
/export/apps/rDock/src/rDock_2013.1_src/data/scripts/dock_solv.prm

>  <Rbt.Receptor>
prm/blind_docking_40.prm

>  <SCORE>
-10.2119

>  <SCORE.INTER>
-10.2119

>  <SCORE.INTER.CONST>
1

>  <SCORE.INTER.POLAR>
0

>  <SCORE.INTER.ROT>
0

>  <SCORE.INTER.SOLV>
6.87348

>  <SCORE.INTER.VDW>
-12.6991

>  <SCORE.INTER.norm>
-0.850994

>  <SCORE.INTRA>
0

>  <SCORE.INTRA.DIHEDRAL>
0

>  <SCORE.INTRA.DIHEDRAL.0>
0

>  <SCORE.INTRA.POLAR>
0

>  <SCORE.INTRA.POLAR.0>
0

>  <SCORE.INTRA.REPUL>
0

>  <SCORE.INTRA.REPUL.0>
0

>  <SCORE.INTRA.SOLV>
0

>  <SCORE.INTRA.SOLV.lig_0>
-48.1583

>  <SCORE.INTRA.VDW>
0

>  <SCORE.INTRA.VDW.0>
0

>  <SCORE.INTRA.norm>
0

>  <SCORE.RESTR>
0

>  <SCORE.RESTR.CAVITY>
0

>  <SCORE.RESTR.norm>
0

>  <SCORE.SYSTEM>
0

>  <SCORE.SYSTEM.CONST>
0

>  <SCORE.SYSTEM.DIHEDRAL>
0

>  <SCORE.SYSTEM.SOLV>
0

>  <SCORE.SYSTEM.norm>
0

>  <SCORE.heavy>
12

>  <SCORE.norm>
-0.850994

>  <RMSD>
26.809

$$$$
ligand
 OpenBabel11021811503D
libRbt.so/2013.1/901 2013/11/27
 12 13  0  0  0  0  0  0  0  0999 V2000
  -16.6754   31.7905   -3.6272 C   0  0  0  0  0  0  0  0  0  0  0  0
  -14.8217   30.4268   -3.9999 C   0  0  0  0  0  0  0  0  0  0  0  0
  -17.1685   32.9994   -3.3739 N   0  0  0  0  0  0  0  0  0  0  0  0
  -13.5034   30.2188   -4.0890 N   0  0  0  0  0  0  0  0  0  0  0  0
  -15.3371   31.6313   -3.7202 N   0  0  0  0  0  0  0  0  0  0  0  0
  -17.5178   30.7502   -3.8140 N   0  0  0  0  0  0  0  0  0  0  0  0
  -16.0131   26.9862   -4.6404 N   0  0  0  0  0  0  0  0  0  0  0  0
  -17.3980   27.1909   -4.5417 C   0  0  0  0  0  0  0  0  0  0  0  0
  -17.9033   28.4793   -4.2494 N   0  0  0  0  0  0  0  0  0  0  0  0
  -17.0444   29.5090   -4.0883 C   0  0  0  0  0  0  0  0  0  0  0  0
  -15.6622   29.3239   -4.1949 C   0  0  0  0  0  0  0  0  0  0  0  0
  -15.1259   28.0675   -4.4706 C   0  0  0  0  0  0  0  0  0  0  0  0
  1  3  1  0  0  0  0
  1  5  1  0  0  0  0
  1  6  2  0  0  0  0
  2  5  2  0  0  0  0
  2 11  1  0  0  0  0
  2  4  1  0  0  0  0
  6 10  1  0  0  0  0
  7  8  2  0  0  0  0
  7 12  1  0  0  0  0
  8  9  1  0  0  0  0
  9 10  2  0  0  0  0
 10 11  1  0  0  0  0
 11 12  2  0  0  0  0
M  END
>  <CHROM.1>
-16.18547308,29.81155940,-4.06083656,1.52285977,0.04288849,0.20113048

>  <Name>
ligand

>  <RI>
0

>  <Rbt.Current_Directory>
/home/itssahil/PROJECTS/Mol_Feturizer/New_Systems/rnas/4LX5

>  <Rbt.Executable>
rbdock ($Id: //depot/dev/client3/rdock/2013.1/src/exe/rbdock.cxx#4 $)

>  <Rbt.Library>
libRbt.so (2013.1, Build901 2013/11/27)

>  <Rbt.Parameter_File>
/export/apps/rDock/src/rDock_2013.1_src/data/scripts/dock_solv.prm

>  <Rbt.Receptor>
prm/blind_docking_100.prm

>  <SCORE>
-10.2116

>  <SCORE.INTER>
-10.2116

>  <SCORE.INTER.CONST>
1

>  <SCORE.INTER.POLAR>
0

>  <SCORE.INTER.ROT>
0

>  <SCORE.INTER.SOLV>
6.85846

>  <SCORE.INTER.VDW>
-12.6939

>  <SCORE.INTER.norm>
-0.850968

>  <SCORE.INTRA>
0

>  <SCORE.INTRA.DIHEDRAL>
0

>  <SCORE.INTRA.DIHEDRAL.0>
0

>  <SCORE.INTRA.POLAR>
0

>  <SCORE.INTRA.POLAR.0>
0

>  <SCORE.INTRA.REPUL>
0

>  <SCORE.INTRA.REPUL.0>
0

>  <SCORE.INTRA.SOLV>
0

>  <SCORE.INTRA.SOLV.lig_0>
-48.1583

>  <SCORE.INTRA.VDW>
0

>  <SCORE.INTRA.VDW.0>
0

>  <SCORE.INTRA.norm>
0

>  <SCORE.RESTR>
0

>  <SCORE.RESTR.CAVITY>
0

>  <SCORE.RESTR.norm>
0

>  <SCORE.SYSTEM>
0

>  <SCORE.SYSTEM.CONST>
0

>  <SCORE.SYSTEM.DIHEDRAL>
0

>  <SCORE.SYSTEM.SOLV>
0

>  <SCORE.SYSTEM.norm>
0

>  <SCORE.heavy>
12

>  <SCORE.norm>
-0.850968

>  <RMSD>
26.811

$$$$
ligand
 OpenBabel11021811503D
libRbt.so/2013.1/901 2013/11/27
 12 13  0  0  0  0  0  0  0  0999 V2000
  -16.6746   31.7980   -3.6127 C   0  0  0  0  0  0  0  0  0  0  0  0
  -14.8235   30.4331   -3.9937 C   0  0  0  0  0  0  0  0  0  0  0  0
  -17.1658   33.0075   -3.3582 N   0  0  0  0  0  0  0  0  0  0  0  0
  -13.5058   30.2245   -4.0897 N   0  0  0  0  0  0  0  0  0  0  0  0
  -15.3369   31.6382   -3.7128 N   0  0  0  0  0  0  0  0  0  0  0  0
  -17.5184   30.7579   -3.7936 N   0  0  0  0  0  0  0  0  0  0  0  0
  -16.0198   26.9922   -4.6236 N   0  0  0  0  0  0  0  0  0  0  0  0
  -17.4040   27.1976   -4.5176 C   0  0  0  0  0  0  0  0  0  0  0  0
  -17.9072   28.4866   -4.2242 N   0  0  0  0  0  0  0  0  0  0  0  0
  -17.0470   29.5162   -4.0690 C   0  0  0  0  0  0  0  0  0  0  0  0
  -15.6655   29.3303   -4.1828 C   0  0  0  0  0  0  0  0  0  0  0  0
  -15.1312   28.0733   -4.4599 C   0  0  0  0  0  0  0  0  0  0  0  0
  1  3  1  0  0  0  0
  1  5  1  0  0  0  0
  1  6  2  0  0  0  0
  2  5  2  0  0  0  0
  2 11  1  0  0  0  0
  2  4  1  0  0  0  0
  6 10  1  0  0  0  0
  7  8  2  0  0  0  0
  7 12  1  0  0  0  0
  8  9  1  0  0  0  0
  9 10  2  0  0  0  0
 10 11  1  0  0  0  0
 11 12  2  0  0  0  0
M  END
>  <CHROM.1>
-16.18783991,29.81836868,-4.04653395,1.52136991,0.04809824,0.19997206

>  <Name>
ligand

>  <RI>
0

>  <Rbt.Current_Directory>
/home/itssahil/PROJECTS/Mol_Feturizer/New_Systems/rnas/4LX5

>  <Rbt.Executable>
rbdock ($Id: //depot/dev/client3/rdock/2013.1/src/exe/rbdock.cxx#4 $)

>  <Rbt.Library>
libRbt.so (2013.1, Build901 2013/11/27)

>  <Rbt.Parameter_File>
/export/apps/rDock/src/rDock_2013.1_src/data/scripts/dock_solv.prm

>  <Rbt.Receptor>
prm/blind_docking_40.prm

>  <SCORE>
-10.207

>  <SCORE.INTER>
-10.207

>  <SCORE.INTER.CONST>
1

>  <SCORE.INTER.POLAR>
0

>  <SCORE.INTER.ROT>
0

>  <SCORE.INTER.SOLV>
6.88196

>  <SCORE.INTER.VDW>
-12.6986

>  <SCORE.INTER.norm>
-0.850582

>  <SCORE.INTRA>
0

>  <SCORE.INTRA.DIHEDRAL>
0

>  <SCORE.INTRA.DIHEDRAL.0>
0

>  <SCORE.INTRA.POLAR>
0

>  <SCORE.INTRA.POLAR.0>
0

>  <SCORE.INTRA.REPUL>
0

>  <SCORE.INTRA.REPUL.0>
0

>  <SCORE.INTRA.SOLV>
0

>  <SCORE.INTRA.SOLV.lig_0>
-48.1583

>  <SCORE.INTRA.VDW>
0

>  <SCORE.INTRA.VDW.0>
0

>  <SCORE.INTRA.norm>
0

>  <SCORE.RESTR>
0

>  <SCORE.RESTR.CAVITY>
0

>  <SCORE.RESTR.norm>
0

>  <SCORE.SYSTEM>
0

>  <SCORE.SYSTEM.CONST>
0

>  <SCORE.SYSTEM.DIHEDRAL>
0

>  <SCORE.SYSTEM.SOLV>
0

>  <SCORE.SYSTEM.norm>
0

>  <SCORE.heavy>
12

>  <SCORE.norm>
-0.850582

>  <RMSD>
26.812

$$$$
ligand
 OpenBabel11021811503D
libRbt.so/2013.1/901 2013/11/27
 12 13  0  0  0  0  0  0  0  0999 V2000
  -16.6746   31.7871   -3.6201 C   0  0  0  0  0  0  0  0  0  0  0  0
  -14.8233   30.4224   -4.0010 C   0  0  0  0  0  0  0  0  0  0  0  0
  -17.1656   32.9960   -3.3623 N   0  0  0  0  0  0  0  0  0  0  0  0
  -13.5055   30.2132   -4.0941 N   0  0  0  0  0  0  0  0  0  0  0  0
  -15.3366   31.6267   -3.7170 N   0  0  0  0  0  0  0  0  0  0  0  0
  -17.5186   30.7482   -3.8073 N   0  0  0  0  0  0  0  0  0  0  0  0
  -16.0201   26.9847   -4.6472 N   0  0  0  0  0  0  0  0  0  0  0  0
  -17.4045   27.1907   -4.5444 C   0  0  0  0  0  0  0  0  0  0  0  0
  -17.9076   28.4788   -4.2474 N   0  0  0  0  0  0  0  0  0  0  0  0
  -17.0472   29.5072   -4.0860 C   0  0  0  0  0  0  0  0  0  0  0  0
  -15.6655   29.3209   -4.1966 C   0  0  0  0  0  0  0  0  0  0  0  0
  -15.1313   28.0646   -4.4769 C   0  0  0  0  0  0  0  0  0  0  0  0
  1  3  1  0  0  0  0
  1  5  1  0  0  0  0
  1  6  2  0  0  0  0
  2  5  2  0  0  0  0
  2 11  1  0  0  0  0
  2  4  1  0  0  0  0
  6 10  1  0  0  0  0
  7  8  2  0  0  0  0
  7 12  1  0  0  0  0
  8  9  1  0  0  0  0
  9 10  2  0  0  0  0
 10 11  1  0  0  0  0
 11 12  2  0  0  0  0
M  END
>  <CHROM.1>
-16.18789596,29.80877255,-4.05997852,1.52126855,0.04520854,0.20374308

>  <Name>
ligand

>  <RI>
0

>  <Rbt.Current_Directory>
/home/itssahil/PROJECTS/Mol_Feturizer/New_Systems/rnas/4LX5

>  <Rbt.Executable>
rbdock ($Id: //depot/dev/client3/rdock/2013.1/src/exe/rbdock.cxx#4 $)

>  <Rbt.Library>
libRbt.so (2013.1, Build901 2013/11/27)

>  <Rbt.Parameter_File>
/export/apps/rDock/src/rDock_2013.1_src/data/scripts/dock_solv.prm

>  <Rbt.Receptor>
prm/blind_docking_60.prm

>  <SCORE>
-10.2123

>  <SCORE.INTER>
-10.2123

>  <SCORE.INTER.CONST>
1

>  <SCORE.INTER.POLAR>
0

>  <SCORE.INTER.ROT>
0

>  <SCORE.INTER.SOLV>
6.85903

>  <SCORE.INTER.VDW>
-12.6945

>  <SCORE.INTER.norm>
-0.851024

>  <SCORE.INTRA>
0

>  <SCORE.INTRA.DIHEDRAL>
0

>  <SCORE.INTRA.DIHEDRAL.0>
0

>  <SCORE.INTRA.POLAR>
0

>  <SCORE.INTRA.POLAR.0>
0

>  <SCORE.INTRA.REPUL>
0

>  <SCORE.INTRA.REPUL.0>
0

>  <SCORE.INTRA.SOLV>
0

>  <SCORE.INTRA.SOLV.lig_0>
-48.1583

>  <SCORE.INTRA.VDW>
0

>  <SCORE.INTRA.VDW.0>
0

>  <SCORE.INTRA.norm>
0

>  <SCORE.RESTR>
0

>  <SCORE.RESTR.CAVITY>
0

>  <SCORE.RESTR.norm>
0

>  <SCORE.SYSTEM>
0

>  <SCORE.SYSTEM.CONST>
0

>  <SCORE.SYSTEM.DIHEDRAL>
0

>  <SCORE.SYSTEM.SOLV>
0

>  <SCORE.SYSTEM.norm>
0

>  <SCORE.heavy>
12

>  <SCORE.norm>
-0.851024

>  <RMSD>
26.812

$$$$
ligand
 OpenBabel11021811503D
libRbt.so/2013.1/901 2013/11/27
 12 13  0  0  0  0  0  0  0  0999 V2000
  -16.6796   31.7918   -3.6252 C   0  0  0  0  0  0  0  0  0  0  0  0
  -14.8250   30.4287   -3.9958 C   0  0  0  0  0  0  0  0  0  0  0  0
  -17.1732   33.0005   -3.3717 N   0  0  0  0  0  0  0  0  0  0  0  0
  -13.5065   30.2209   -4.0828 N   0  0  0  0  0  0  0  0  0  0  0  0
  -15.3410   31.6329   -3.7160 N   0  0  0  0  0  0  0  0  0  0  0  0
  -17.5215   30.7515   -3.8142 N   0  0  0  0  0  0  0  0  0  0  0  0
  -16.0148   26.9884   -4.6413 N   0  0  0  0  0  0  0  0  0  0  0  0
  -17.3999   27.1929   -4.5448 C   0  0  0  0  0  0  0  0  0  0  0  0
  -17.9058   28.4809   -4.2522 N   0  0  0  0  0  0  0  0  0  0  0  0
  -17.0474   29.5106   -4.0888 C   0  0  0  0  0  0  0  0  0  0  0  0
  -15.6650   29.3258   -4.1932 C   0  0  0  0  0  0  0  0  0  0  0  0
  -15.1280   28.0697   -4.4690 C   0  0  0  0  0  0  0  0  0  0  0  0
  1  3  1  0  0  0  0
  1  5  1  0  0  0  0
  1  6  2  0  0  0  0
  2  5  2  0  0  0  0
  2 11  1  0  0  0  0
  2  4  1  0  0  0  0
  6 10  1  0  0  0  0
  7  8  2  0  0  0  0
  7 12  1  0  0  0  0
  8  9  1  0  0  0  0
  9 10  2  0  0  0  0
 10 11  1  0  0  0  0
 11 12  2  0  0  0  0
M  END
>  <CHROM.1>
-16.18857589,29.81328286,-4.05960669,1.52334461,0.04122751,0.20194651

>  <Name>
ligand

>  <RI>
0

>  <Rbt.Current_Directory>
/home/itssahil/PROJECTS/Mol_Feturizer/New_Systems/rnas/4LX5

>  <Rbt.Executable>
rbdock ($Id: //depot/dev/client3/rdock/2013.1/src/exe/rbdock.cxx#4 $)

>  <Rbt.Library>
libRbt.so (2013.1, Build901 2013/11/27)

>  <Rbt.Parameter_File>
/export/apps/rDock/src/rDock_2013.1_src/data/scripts/dock_solv.prm

>  <Rbt.Receptor>
prm/blind_docking_40.prm

>  <SCORE>
-10.2082

>  <SCORE.INTER>
-10.2082

>  <SCORE.INTER.CONST>
1

>  <SCORE.INTER.POLAR>
0

>  <SCORE.INTER.ROT>
0

>  <SCORE.INTER.SOLV>
6.86308

>  <SCORE.INTER.VDW>
-12.6931

>  <SCORE.INTER.norm>
-0.850681

>  <SCORE.INTRA>
0

>  <SCORE.INTRA.DIHEDRAL>
0

>  <SCORE.INTRA.DIHEDRAL.0>
0

>  <SCORE.INTRA.POLAR>
0

>  <SCORE.INTRA.POLAR.0>
0

>  <SCORE.INTRA.REPUL>
0

>  <SCORE.INTRA.REPUL.0>
0

>  <SCORE.INTRA.SOLV>
0

>  <SCORE.INTRA.SOLV.lig_0>
-48.1583

>  <SCORE.INTRA.VDW>
0

>  <SCORE.INTRA.VDW.0>
0

>  <SCORE.INTRA.norm>
0

>  <SCORE.RESTR>
0

>  <SCORE.RESTR.CAVITY>
0

>  <SCORE.RESTR.norm>
0

>  <SCORE.SYSTEM>
0

>  <SCORE.SYSTEM.CONST>
0

>  <SCORE.SYSTEM.DIHEDRAL>
0

>  <SCORE.SYSTEM.SOLV>
0

>  <SCORE.SYSTEM.norm>
0

>  <SCORE.heavy>
12

>  <SCORE.norm>
-0.850681

>  <RMSD>
26.814

$$$$
ligand
 OpenBabel11021811503D
libRbt.so/2013.1/901 2013/11/27
 12 13  0  0  0  0  0  0  0  0999 V2000
  -16.6769   31.7852   -3.6218 C   0  0  0  0  0  0  0  0  0  0  0  0
  -14.8271   30.4190   -4.0049 C   0  0  0  0  0  0  0  0  0  0  0  0
  -17.1667   32.9943   -3.3633 N   0  0  0  0  0  0  0  0  0  0  0  0
  -13.5095   30.2088   -4.0995 N   0  0  0  0  0  0  0  0  0  0  0  0
  -15.3392   31.6237   -3.7201 N   0  0  0  0  0  0  0  0  0  0  0  0
  -17.5219   30.7470   -3.8083 N   0  0  0  0  0  0  0  0  0  0  0  0
  -16.0273   26.9824   -4.6506 N   0  0  0  0  0  0  0  0  0  0  0  0
  -17.4114   27.1895   -4.5462 C   0  0  0  0  0  0  0  0  0  0  0  0
  -17.9132   28.4780   -4.2485 N   0  0  0  0  0  0  0  0  0  0  0  0
  -17.0518   29.5057   -4.0878 C   0  0  0  0  0  0  0  0  0  0  0  0
  -15.6704   29.3183   -4.1999 C   0  0  0  0  0  0  0  0  0  0  0  0
  -15.1374   28.0616   -4.4810 C   0  0  0  0  0  0  0  0  0  0  0  0
  1  3  1  0  0  0  0
  1  5  1  0  0  0  0
  1  6  2  0  0  0  0
  2  5  2  0  0  0  0
  2 11  1  0  0  0  0
  2  4  1  0  0  0  0
  6 10  1  0  0  0  0
  7  8  2  0  0  0  0
  7 12  1  0  0  0  0
  8  9  1  0  0  0  0
  9 10  2  0  0  0  0
 10 11  1  0  0  0  0
 11 12  2  0  0  0  0
M  END
>  <CHROM.1>
-16.19223748,29.80651884,-4.06260469,1.52028225,0.04608571,0.20400204

>  <Name>
ligand

>  <RI>
0

>  <Rbt.Current_Directory>
/home/itssahil/PROJECTS/Mol_Feturizer/New_Systems/rnas/4LX5

>  <Rbt.Executable>
rbdock ($Id: //depot/dev/client3/rdock/2013.1/src/exe/rbdock.cxx#4 $)

>  <Rbt.Library>
libRbt.so (2013.1, Build901 2013/11/27)

>  <Rbt.Parameter_File>
/export/apps/rDock/src/rDock_2013.1_src/data/scripts/dock_solv.prm

>  <Rbt.Receptor>
prm/blind_docking_40.prm

>  <SCORE>
-10.2089

>  <SCORE.INTER>
-10.2089

>  <SCORE.INTER.CONST>
1

>  <SCORE.INTER.POLAR>
0

>  <SCORE.INTER.ROT>
0

>  <SCORE.INTER.SOLV>
6.86592

>  <SCORE.INTER.VDW>
-12.6945

>  <SCORE.INTER.norm>
-0.850738

>  <SCORE.INTRA>
0

>  <SCORE.INTRA.DIHEDRAL>
0

>  <SCORE.INTRA.DIHEDRAL.0>
0

>  <SCORE.INTRA.POLAR>
0

>  <SCORE.INTRA.POLAR.0>
0

>  <SCORE.INTRA.REPUL>
0

>  <SCORE.INTRA.REPUL.0>
0

>  <SCORE.INTRA.SOLV>
0

>  <SCORE.INTRA.SOLV.lig_0>
-48.1583

>  <SCORE.INTRA.VDW>
0

>  <SCORE.INTRA.VDW.0>
0

>  <SCORE.INTRA.norm>
0

>  <SCORE.RESTR>
0

>  <SCORE.RESTR.CAVITY>
0

>  <SCORE.RESTR.norm>
0

>  <SCORE.SYSTEM>
0

>  <SCORE.SYSTEM.CONST>
0

>  <SCORE.SYSTEM.DIHEDRAL>
0

>  <SCORE.SYSTEM.SOLV>
0

>  <SCORE.SYSTEM.norm>
0

>  <SCORE.heavy>
12

>  <SCORE.norm>
-0.850738

>  <RMSD>
26.815

$$$$
ligand
 OpenBabel11021811503D
libRbt.so/2013.1/901 2013/11/27
 12 13  0  0  0  0  0  0  0  0999 V2000
  -16.6827   31.7831   -3.6376 C   0  0  0  0  0  0  0  0  0  0  0  0
  -14.8296   30.4193   -4.0131 C   0  0  0  0  0  0  0  0  0  0  0  0
  -17.1754   32.9923   -3.3845 N   0  0  0  0  0  0  0  0  0  0  0  0
  -13.5115   30.2115   -4.1053 N   0  0  0  0  0  0  0  0  0  0  0  0
  -15.3445   31.6241   -3.7337 N   0  0  0  0  0  0  0  0  0  0  0  0
  -17.5253   30.7425   -3.8210 N   0  0  0  0  0  0  0  0  0  0  0  0
  -16.0220   26.9777   -4.6466 N   0  0  0  0  0  0  0  0  0  0  0  0
  -17.4066   27.1823   -4.5447 C   0  0  0  0  0  0  0  0  0  0  0  0
  -17.9114   28.4709   -4.2527 N   0  0  0  0  0  0  0  0  0  0  0  0
  -17.0524   29.5010   -4.0950 C   0  0  0  0  0  0  0  0  0  0  0  0
  -15.6704   29.3161   -4.2048 C   0  0  0  0  0  0  0  0  0  0  0  0
  -15.1345   28.0594   -4.4802 C   0  0  0  0  0  0  0  0  0  0  0  0
  1  3  1  0  0  0  0
  1  5  1  0  0  0  0
  1  6  2  0  0  0  0
  2  5  2  0  0  0  0
  2 11  1  0  0  0  0
  2  4  1  0  0  0  0
  6 10  1  0  0  0  0
  7  8  2  0  0  0  0
  7 12  1  0  0  0  0
  8  9  1  0  0  0  0
  9 10  2  0  0  0  0
 10 11  1  0  0  0  0
 11 12  2  0  0  0  0
M  END
>  <CHROM.1>
-16.19344188,29.80376924,-4.06999939,1.52255157,0.04534773,0.19992626

>  <Name>
ligand

>  <RI>
0

>  <Rbt.Current_Directory>
/home/itssahil/PROJECTS/Mol_Feturizer/New_Systems/rnas/4LX5

>  <Rbt.Executable>
rbdock ($Id: //depot/dev/client3/rdock/2013.1/src/exe/rbdock.cxx#4 $)

>  <Rbt.Library>
libRbt.so (2013.1, Build901 2013/11/27)

>  <Rbt.Parameter_File>
/export/apps/rDock/src/rDock_2013.1_src/data/scripts/dock_solv.prm

>  <Rbt.Receptor>
prm/blind_docking_100.prm

>  <SCORE>
-10.2006

>  <SCORE.INTER>
-10.2006

>  <SCORE.INTER.CONST>
1

>  <SCORE.INTER.POLAR>
0

>  <SCORE.INTER.ROT>
0

>  <SCORE.INTER.SOLV>
6.89477

>  <SCORE.INTER.VDW>
-12.6987

>  <SCORE.INTER.norm>
-0.85005

>  <SCORE.INTRA>
0

>  <SCORE.INTRA.DIHEDRAL>
0

>  <SCORE.INTRA.DIHEDRAL.0>
0

>  <SCORE.INTRA.POLAR>
0

>  <SCORE.INTRA.POLAR.0>
0

>  <SCORE.INTRA.REPUL>
0

>  <SCORE.INTRA.REPUL.0>
0

>  <SCORE.INTRA.SOLV>
0

>  <SCORE.INTRA.SOLV.lig_0>
-48.1583

>  <SCORE.INTRA.VDW>
0

>  <SCORE.INTRA.VDW.0>
0

>  <SCORE.INTRA.norm>
0

>  <SCORE.RESTR>
0

>  <SCORE.RESTR.CAVITY>
0

>  <SCORE.RESTR.norm>
0

>  <SCORE.SYSTEM>
0

>  <SCORE.SYSTEM.CONST>
0

>  <SCORE.SYSTEM.DIHEDRAL>
0

>  <SCORE.SYSTEM.SOLV>
0

>  <SCORE.SYSTEM.norm>
0

>  <SCORE.heavy>
12

>  <SCORE.norm>
-0.85005

>  <RMSD>
26.816

$$$$
ligand
 OpenBabel11021811503D
libRbt.so/2013.1/901 2013/11/27
 12 13  0  0  0  0  0  0  0  0999 V2000
  -16.6824   31.7935   -3.6324 C   0  0  0  0  0  0  0  0  0  0  0  0
  -14.8272   30.4310   -4.0022 C   0  0  0  0  0  0  0  0  0  0  0  0
  -17.1767   33.0023   -3.3809 N   0  0  0  0  0  0  0  0  0  0  0  0
  -13.5087   30.2241   -4.0903 N   0  0  0  0  0  0  0  0  0  0  0  0
  -15.3438   31.6354   -3.7245 N   0  0  0  0  0  0  0  0  0  0  0  0
  -17.5237   30.7522   -3.8183 N   0  0  0  0  0  0  0  0  0  0  0  0
  -16.0150   26.9885   -4.6390 N   0  0  0  0  0  0  0  0  0  0  0  0
  -17.4002   27.1920   -4.5414 C   0  0  0  0  0  0  0  0  0  0  0  0
  -17.9068   28.4803   -4.2510 N   0  0  0  0  0  0  0  0  0  0  0  0
  -17.0490   29.5111   -4.0908 C   0  0  0  0  0  0  0  0  0  0  0  0
  -15.6666   29.3271   -4.1963 C   0  0  0  0  0  0  0  0  0  0  0  0
  -15.1289   28.0708   -4.4700 C   0  0  0  0  0  0  0  0  0  0  0  0
  1  3  1  0  0  0  0
  1  5  1  0  0  0  0
  1  6  2  0  0  0  0
  2  5  2  0  0  0  0
  2 11  1  0  0  0  0
  2  4  1  0  0  0  0
  6 10  1  0  0  0  0
  7  8  2  0  0  0  0
  7 12  1  0  0  0  0
  8  9  1  0  0  0  0
  9 10  2  0  0  0  0
 10 11  1  0  0  0  0
 11 12  2  0  0  0  0
M  END
>  <CHROM.1>
-16.19036149,29.81443048,-4.06319301,1.52388252,0.04248860,0.19978784

>  <Name>
ligand

>  <RI>
0

>  <Rbt.Current_Directory>
/home/itssahil/PROJECTS/Mol_Feturizer/New_Systems/rnas/4LX5

>  <Rbt.Executable>
rbdock ($Id: //depot/dev/client3/rdock/2013.1/src/exe/rbdock.cxx#4 $)

>  <Rbt.Library>
libRbt.so (2013.1, Build901 2013/11/27)

>  <Rbt.Parameter_File>
/export/apps/rDock/src/rDock_2013.1_src/data/scripts/dock_solv.prm

>  <Rbt.Receptor>
prm/blind_docking_100.prm

>  <SCORE>
-10.2085

>  <SCORE.INTER>
-10.2085

>  <SCORE.INTER.CONST>
1

>  <SCORE.INTER.POLAR>
0

>  <SCORE.INTER.ROT>
0

>  <SCORE.INTER.SOLV>
6.87799

>  <SCORE.INTER.VDW>
-12.6983

>  <SCORE.INTER.norm>
-0.850708

>  <SCORE.INTRA>
0

>  <SCORE.INTRA.DIHEDRAL>
0

>  <SCORE.INTRA.DIHEDRAL.0>
0

>  <SCORE.INTRA.POLAR>
0

>  <SCORE.INTRA.POLAR.0>
0

>  <SCORE.INTRA.REPUL>
0

>  <SCORE.INTRA.REPUL.0>
0

>  <SCORE.INTRA.SOLV>
0

>  <SCORE.INTRA.SOLV.lig_0>
-48.1583

>  <SCORE.INTRA.VDW>
0

>  <SCORE.INTRA.VDW.0>
0

>  <SCORE.INTRA.norm>
0

>  <SCORE.RESTR>
0

>  <SCORE.RESTR.CAVITY>
0

>  <SCORE.RESTR.norm>
0

>  <SCORE.SYSTEM>
0

>  <SCORE.SYSTEM.CONST>
0

>  <SCORE.SYSTEM.DIHEDRAL>
0

>  <SCORE.SYSTEM.SOLV>
0

>  <SCORE.SYSTEM.norm>
0

>  <SCORE.heavy>
12

>  <SCORE.norm>
-0.850708

>  <RMSD>
26.817

$$$$
ligand
 OpenBabel11021811503D
libRbt.so/2013.1/901 2013/11/27
 12 13  0  0  0  0  0  0  0  0999 V2000
  -16.6814   31.7937   -3.6263 C   0  0  0  0  0  0  0  0  0  0  0  0
  -14.8276   30.4308   -4.0013 C   0  0  0  0  0  0  0  0  0  0  0  0
  -17.1746   33.0024   -3.3718 N   0  0  0  0  0  0  0  0  0  0  0  0
  -13.5093   30.2232   -4.0918 N   0  0  0  0  0  0  0  0  0  0  0  0
  -15.3431   31.6350   -3.7206 N   0  0  0  0  0  0  0  0  0  0  0  0
  -17.5236   30.7532   -3.8129 N   0  0  0  0  0  0  0  0  0  0  0  0
  -16.0185   26.9901   -4.6427 N   0  0  0  0  0  0  0  0  0  0  0  0
  -17.4034   27.1944   -4.5427 C   0  0  0  0  0  0  0  0  0  0  0  0
  -17.9088   28.4824   -4.2492 N   0  0  0  0  0  0  0  0  0  0  0  0
  -17.0501   29.5124   -4.0884 C   0  0  0  0  0  0  0  0  0  0  0  0
  -15.6679   29.3277   -4.1962 C   0  0  0  0  0  0  0  0  0  0  0  0
  -15.1315   28.0716   -4.4731 C   0  0  0  0  0  0  0  0  0  0  0  0
  1  3  1  0  0  0  0
  1  5  1  0  0  0  0
  1  6  2  0  0  0  0
  2  5  2  0  0  0  0
  2 11  1  0  0  0  0
  2  4  1  0  0  0  0
  6 10  1  0  0  0  0
  7  8  2  0  0  0  0
  7 12  1  0  0  0  0
  8  9  1  0  0  0  0
  9 10  2  0  0  0  0
 10 11  1  0  0  0  0
 11 12  2  0  0  0  0
M  END
>  <CHROM.1>
-16.19122190,29.81514131,-4.06143742,1.52298059,0.04381057,0.20167323

>  <Name>
ligand

>  <RI>
0

>  <Rbt.Current_Directory>
/home/itssahil/PROJECTS/Mol_Feturizer/New_Systems/rnas/4LX5

>  <Rbt.Executable>
rbdock ($Id: //depot/dev/client3/rdock/2013.1/src/exe/rbdock.cxx#4 $)

>  <Rbt.Library>
libRbt.so (2013.1, Build901 2013/11/27)

>  <Rbt.Parameter_File>
/export/apps/rDock/src/rDock_2013.1_src/data/scripts/dock_solv.prm

>  <Rbt.Receptor>
prm/blind_docking_40.prm

>  <SCORE>
-10.2098

>  <SCORE.INTER>
-10.2098

>  <SCORE.INTER.CONST>
1

>  <SCORE.INTER.POLAR>
0

>  <SCORE.INTER.ROT>
0

>  <SCORE.INTER.SOLV>
6.87756

>  <SCORE.INTER.VDW>
-12.699

>  <SCORE.INTER.norm>
-0.850815

>  <SCORE.INTRA>
0

>  <SCORE.INTRA.DIHEDRAL>
0

>  <SCORE.INTRA.DIHEDRAL.0>
0

>  <SCORE.INTRA.POLAR>
0

>  <SCORE.INTRA.POLAR.0>
0

>  <SCORE.INTRA.REPUL>
0

>  <SCORE.INTRA.REPUL.0>
0

>  <SCORE.INTRA.SOLV>
0

>  <SCORE.INTRA.SOLV.lig_0>
-48.1583

>  <SCORE.INTRA.VDW>
0

>  <SCORE.INTRA.VDW.0>
0

>  <SCORE.INTRA.norm>
0

>  <SCORE.RESTR>
0

>  <SCORE.RESTR.CAVITY>
0

>  <SCORE.RESTR.norm>
0

>  <SCORE.SYSTEM>
0

>  <SCORE.SYSTEM.CONST>
0

>  <SCORE.SYSTEM.DIHEDRAL>
0

>  <SCORE.SYSTEM.SOLV>
0

>  <SCORE.SYSTEM.norm>
0

>  <SCORE.heavy>
12

>  <SCORE.norm>
-0.850815

>  <RMSD>
26.817

$$$$
ligand
 OpenBabel11021811503D
libRbt.so/2013.1/901 2013/11/27
 12 13  0  0  0  0  0  0  0  0999 V2000
  -16.6792   31.7907   -3.6235 C   0  0  0  0  0  0  0  0  0  0  0  0
  -14.8277   30.4256   -4.0015 C   0  0  0  0  0  0  0  0  0  0  0  0
  -17.1704   32.9995   -3.3655 N   0  0  0  0  0  0  0  0  0  0  0  0
  -13.5097   30.2159   -4.0917 N   0  0  0  0  0  0  0  0  0  0  0  0
  -15.3411   31.6298   -3.7173 N   0  0  0  0  0  0  0  0  0  0  0  0
  -17.5232   30.7525   -3.8139 N   0  0  0  0  0  0  0  0  0  0  0  0
  -16.0245   26.9892   -4.6547 N   0  0  0  0  0  0  0  0  0  0  0  0
  -17.4091   27.1957   -4.5550 C   0  0  0  0  0  0  0  0  0  0  0  0
  -17.9123   28.4838   -4.2578 N   0  0  0  0  0  0  0  0  0  0  0  0
  -17.0518   29.5116   -4.0930 C   0  0  0  0  0  0  0  0  0  0  0  0
  -15.6699   29.3247   -4.2005 C   0  0  0  0  0  0  0  0  0  0  0  0
  -15.1356   28.0685   -4.4810 C   0  0  0  0  0  0  0  0  0  0  0  0
  1  3  1  0  0  0  0
  1  5  1  0  0  0  0
  1  6  2  0  0  0  0
  2  5  2  0  0  0  0
  2 11  1  0  0  0  0
  2  4  1  0  0  0  0
  6 10  1  0  0  0  0
  7  8  2  0  0  0  0
  7 12  1  0  0  0  0
  8  9  1  0  0  0  0
  9 10  2  0  0  0  0
 10 11  1  0  0  0  0
 11 12  2  0  0  0  0
M  END
>  <CHROM.1>
-16.19240879,29.81268656,-4.06456089,1.52130695,0.04274382,0.20492922

>  <Name>
ligand

>  <RI>
0

>  <Rbt.Current_Directory>
/home/itssahil/PROJECTS/Mol_Feturizer/New_Systems/rnas/4LX5

>  <Rbt.Executable>
rbdock ($Id: //depot/dev/client3/rdock/2013.1/src/exe/rbdock.cxx#4 $)

>  <Rbt.Library>
libRbt.so (2013.1, Build901 2013/11/27)

>  <Rbt.Parameter_File>
/export/apps/rDock/src/rDock_2013.1_src/data/scripts/dock_solv.prm

>  <Rbt.Receptor>
prm/blind_docking_60.prm

>  <SCORE>
-10.2044

>  <SCORE.INTER>
-10.2044

>  <SCORE.INTER.CONST>
1

>  <SCORE.INTER.POLAR>
0

>  <SCORE.INTER.ROT>
0

>  <SCORE.INTER.SOLV>
6.85758

>  <SCORE.INTER.VDW>
-12.6888

>  <SCORE.INTER.norm>
-0.850363

>  <SCORE.INTRA>
0

>  <SCORE.INTRA.DIHEDRAL>
0

>  <SCORE.INTRA.DIHEDRAL.0>
0

>  <SCORE.INTRA.POLAR>
0

>  <SCORE.INTRA.POLAR.0>
0

>  <SCORE.INTRA.REPUL>
0

>  <SCORE.INTRA.REPUL.0>
0

>  <SCORE.INTRA.SOLV>
0

>  <SCORE.INTRA.SOLV.lig_0>
-48.1583

>  <SCORE.INTRA.VDW>
0

>  <SCORE.INTRA.VDW.0>
0

>  <SCORE.INTRA.norm>
0

>  <SCORE.RESTR>
0

>  <SCORE.RESTR.CAVITY>
0

>  <SCORE.RESTR.norm>
0

>  <SCORE.SYSTEM>
0

>  <SCORE.SYSTEM.CONST>
0

>  <SCORE.SYSTEM.DIHEDRAL>
0

>  <SCORE.SYSTEM.SOLV>
0

>  <SCORE.SYSTEM.norm>
0

>  <SCORE.heavy>
12

>  <SCORE.norm>
-0.850363

>  <RMSD>
26.819

$$$$
ligand
 OpenBabel11021811503D
libRbt.so/2013.1/901 2013/11/27
 12 13  0  0  0  0  0  0  0  0999 V2000
  -16.7779   31.7666   -3.6443 C   0  0  0  0  0  0  0  0  0  0  0  0
  -14.8867   30.4514   -4.0025 C   0  0  0  0  0  0  0  0  0  0  0  0
  -17.3042   32.9630   -3.3983 N   0  0  0  0  0  0  0  0  0  0  0  0
  -13.5629   30.2782   -4.0845 N   0  0  0  0  0  0  0  0  0  0  0  0
  -15.4353   31.6428   -3.7303 N   0  0  0  0  0  0  0  0  0  0  0  0
  -17.5913   30.7035   -3.8307 N   0  0  0  0  0  0  0  0  0  0  0  0
  -15.9829   26.9777   -4.6345 N   0  0  0  0  0  0  0  0  0  0  0  0
  -17.3732   27.1458   -4.5432 C   0  0  0  0  0  0  0  0  0  0  0  0
  -17.9140   28.4214   -4.2586 N   0  0  0  0  0  0  0  0  0  0  0  0
  -17.0837   29.4743   -4.0978 C   0  0  0  0  0  0  0  0  0  0  0  0
  -15.6966   29.3257   -4.1970 C   0  0  0  0  0  0  0  0  0  0  0  0
  -15.1256   28.0829   -4.4649 C   0  0  0  0  0  0  0  0  0  0  0  0
  1  3  1  0  0  0  0
  1  5  1  0  0  0  0
  1  6  2  0  0  0  0
  2  5  2  0  0  0  0
  2 11  1  0  0  0  0
  2  4  1  0  0  0  0
  6 10  1  0  0  0  0
  7  8  2  0  0  0  0
  7 12  1  0  0  0  0
  8  9  1  0  0  0  0
  9 10  2  0  0  0  0
 10 11  1  0  0  0  0
 11 12  2  0  0  0  0
M  END
>  <CHROM.1>
-16.23328416,29.79974953,-4.06740131,1.54996302,0.04341271,0.19590501

>  <Name>
ligand

>  <RI>
0

>  <Rbt.Current_Directory>
/home/itssahil/PROJECTS/Mol_Feturizer/New_Systems/rnas/4LX5

>  <Rbt.Executable>
rbdock ($Id: //depot/dev/client3/rdock/2013.1/src/exe/rbdock.cxx#4 $)

>  <Rbt.Library>
libRbt.so (2013.1, Build901 2013/11/27)

>  <Rbt.Parameter_File>
/export/apps/rDock/src/rDock_2013.1_src/data/scripts/dock_solv.prm

>  <Rbt.Receptor>
prm/blind_docking_40.prm

>  <SCORE>
-10.1726

>  <SCORE.INTER>
-10.1726

>  <SCORE.INTER.CONST>
1

>  <SCORE.INTER.POLAR>
0

>  <SCORE.INTER.ROT>
0

>  <SCORE.INTER.SOLV>
7.21506

>  <SCORE.INTER.VDW>
-12.7868

>  <SCORE.INTER.norm>
-0.847719

>  <SCORE.INTRA>
0

>  <SCORE.INTRA.DIHEDRAL>
0

>  <SCORE.INTRA.DIHEDRAL.0>
0

>  <SCORE.INTRA.POLAR>
0

>  <SCORE.INTRA.POLAR.0>
0

>  <SCORE.INTRA.REPUL>
0

>  <SCORE.INTRA.REPUL.0>
0

>  <SCORE.INTRA.SOLV>
0

>  <SCORE.INTRA.SOLV.lig_0>
-48.1583

>  <SCORE.INTRA.VDW>
0

>  <SCORE.INTRA.VDW.0>
0

>  <SCORE.INTRA.norm>
0

>  <SCORE.RESTR>
0

>  <SCORE.RESTR.CAVITY>
0

>  <SCORE.RESTR.norm>
0

>  <SCORE.SYSTEM>
0

>  <SCORE.SYSTEM.CONST>
0

>  <SCORE.SYSTEM.DIHEDRAL>
0

>  <SCORE.SYSTEM.SOLV>
0

>  <SCORE.SYSTEM.norm>
0

>  <SCORE.heavy>
12

>  <SCORE.norm>
-0.847719

>  <RMSD>
26.848

$$$$
ligand
 OpenBabel11021811503D
libRbt.so/2013.1/901 2013/11/27
 12 13  0  0  0  0  0  0  0  0999 V2000
  -16.7746   31.7734   -3.6485 C   0  0  0  0  0  0  0  0  0  0  0  0
  -14.8831   30.4563   -3.9988 C   0  0  0  0  0  0  0  0  0  0  0  0
  -17.3007   32.9702   -3.4043 N   0  0  0  0  0  0  0  0  0  0  0  0
  -13.5592   30.2818   -4.0750 N   0  0  0  0  0  0  0  0  0  0  0  0
  -15.4318   31.6482   -3.7286 N   0  0  0  0  0  0  0  0  0  0  0  0
  -17.5883   30.7111   -3.8389 N   0  0  0  0  0  0  0  0  0  0  0  0
  -15.9801   26.9840   -4.6370 N   0  0  0  0  0  0  0  0  0  0  0  0
  -17.3706   27.1535   -4.5518 C   0  0  0  0  0  0  0  0  0  0  0  0
  -17.9114   28.4295   -4.2691 N   0  0  0  0  0  0  0  0  0  0  0  0
  -17.0807   29.4815   -4.1042 C   0  0  0  0  0  0  0  0  0  0  0  0
  -15.6933   29.3315   -4.1973 C   0  0  0  0  0  0  0  0  0  0  0  0
  -15.1225   28.0883   -4.4632 C   0  0  0  0  0  0  0  0  0  0  0  0
  1  3  1  0  0  0  0
  1  5  1  0  0  0  0
  1  6  2  0  0  0  0
  2  5  2  0  0  0  0
  2 11  1  0  0  0  0
  2  4  1  0  0  0  0
  6 10  1  0  0  0  0
  7  8  2  0  0  0  0
  7 12  1  0  0  0  0
  8  9  1  0  0  0  0
  9 10  2  0  0  0  0
 10 11  1  0  0  0  0
 11 12  2  0  0  0  0
M  END
>  <CHROM.1>
-16.23011722,29.80608815,-4.06994448,1.54982095,0.03887747,0.19628975

>  <Name>
ligand

>  <RI>
0

>  <Rbt.Current_Directory>
/home/itssahil/PROJECTS/Mol_Feturizer/New_Systems/rnas/4LX5

>  <Rbt.Executable>
rbdock ($Id: //depot/dev/client3/rdock/2013.1/src/exe/rbdock.cxx#4 $)

>  <Rbt.Library>
libRbt.so (2013.1, Build901 2013/11/27)

>  <Rbt.Parameter_File>
/export/apps/rDock/src/rDock_2013.1_src/data/scripts/dock_solv.prm

>  <Rbt.Receptor>
prm/blind_docking_60.prm

>  <SCORE>
-10.1744

>  <SCORE.INTER>
-10.1744

>  <SCORE.INTER.CONST>
1

>  <SCORE.INTER.POLAR>
0

>  <SCORE.INTER.ROT>
0

>  <SCORE.INTER.SOLV>
7.17909

>  <SCORE.INTER.VDW>
-12.7759

>  <SCORE.INTER.norm>
-0.847863

>  <SCORE.INTRA>
0

>  <SCORE.INTRA.DIHEDRAL>
0

>  <SCORE.INTRA.DIHEDRAL.0>
0

>  <SCORE.INTRA.POLAR>
0

>  <SCORE.INTRA.POLAR.0>
0

>  <SCORE.INTRA.REPUL>
0

>  <SCORE.INTRA.REPUL.0>
0

>  <SCORE.INTRA.SOLV>
0

>  <SCORE.INTRA.SOLV.lig_0>
-48.1583

>  <SCORE.INTRA.VDW>
0

>  <SCORE.INTRA.VDW.0>
0

>  <SCORE.INTRA.norm>
0

>  <SCORE.RESTR>
0

>  <SCORE.RESTR.CAVITY>
0

>  <SCORE.RESTR.norm>
0

>  <SCORE.SYSTEM>
0

>  <SCORE.SYSTEM.CONST>
0

>  <SCORE.SYSTEM.DIHEDRAL>
0

>  <SCORE.SYSTEM.SOLV>
0

>  <SCORE.SYSTEM.norm>
0

>  <SCORE.heavy>
12

>  <SCORE.norm>
-0.847863

>  <RMSD>
26.849

$$$$
ligand
 OpenBabel11021811503D
libRbt.so/2013.1/901 2013/11/27
 12 13  0  0  0  0  0  0  0  0999 V2000
  -16.7745   31.7819   -3.6670 C   0  0  0  0  0  0  0  0  0  0  0  0
  -14.8872   30.4564   -4.0080 C   0  0  0  0  0  0  0  0  0  0  0  0
  -17.2966   32.9815   -3.4278 N   0  0  0  0  0  0  0  0  0  0  0  0
  -13.5638   30.2765   -4.0797 N   0  0  0  0  0  0  0  0  0  0  0  0
  -15.4319   31.6512   -3.7427 N   0  0  0  0  0  0  0  0  0  0  0  0
  -17.5918   30.7224   -3.8570 N   0  0  0  0  0  0  0  0  0  0  0  0
  -15.9960   26.9867   -4.6398 N   0  0  0  0  0  0  0  0  0  0  0  0
  -17.3861   27.1619   -4.5593 C   0  0  0  0  0  0  0  0  0  0  0  0
  -17.9226   28.4408   -4.2818 N   0  0  0  0  0  0  0  0  0  0  0  0
  -17.0883   29.4900   -4.1173 C   0  0  0  0  0  0  0  0  0  0  0  0
  -15.7012   29.3343   -4.2058 C   0  0  0  0  0  0  0  0  0  0  0  0
  -15.1345   28.0880   -4.4665 C   0  0  0  0  0  0  0  0  0  0  0  0
  1  3  1  0  0  0  0
  1  5  1  0  0  0  0
  1  6  2  0  0  0  0
  2  5  2  0  0  0  0
  2 11  1  0  0  0  0
  2  4  1  0  0  0  0
  6 10  1  0  0  0  0
  7  8  2  0  0  0  0
  7 12  1  0  0  0  0
  8  9  1  0  0  0  0
  9 10  2  0  0  0  0
 10 11  1  0  0  0  0
 11 12  2  0  0  0  0
M  END
>  <CHROM.1>
-16.23651165,29.81130576,-4.08136357,1.54652477,0.03516587,0.19361921

>  <Name>
ligand

>  <RI>
0

>  <Rbt.Current_Directory>
/home/itssahil/PROJECTS/Mol_Feturizer/New_Systems/rnas/4LX5

>  <Rbt.Executable>
rbdock ($Id: //depot/dev/client3/rdock/2013.1/src/exe/rbdock.cxx#4 $)

>  <Rbt.Library>
libRbt.so (2013.1, Build901 2013/11/27)

>  <Rbt.Parameter_File>
/export/apps/rDock/src/rDock_2013.1_src/data/scripts/dock_solv.prm

>  <Rbt.Receptor>
prm/blind_docking_40.prm

>  <SCORE>
-10.2014

>  <SCORE.INTER>
-10.2014

>  <SCORE.INTER.CONST>
1

>  <SCORE.INTER.POLAR>
0

>  <SCORE.INTER.ROT>
0

>  <SCORE.INTER.SOLV>
7.14052

>  <SCORE.INTER.VDW>
-12.7811

>  <SCORE.INTER.norm>
-0.850118

>  <SCORE.INTRA>
0

>  <SCORE.INTRA.DIHEDRAL>
0

>  <SCORE.INTRA.DIHEDRAL.0>
0

>  <SCORE.INTRA.POLAR>
0

>  <SCORE.INTRA.POLAR.0>
0

>  <SCORE.INTRA.REPUL>
0

>  <SCORE.INTRA.REPUL.0>
0

>  <SCORE.INTRA.SOLV>
0

>  <SCORE.INTRA.SOLV.lig_0>
-48.1583

>  <SCORE.INTRA.VDW>
0

>  <SCORE.INTRA.VDW.0>
0

>  <SCORE.INTRA.norm>
0

>  <SCORE.RESTR>
0

>  <SCORE.RESTR.CAVITY>
0

>  <SCORE.RESTR.norm>
0

>  <SCORE.SYSTEM>
0

>  <SCORE.SYSTEM.CONST>
0

>  <SCORE.SYSTEM.DIHEDRAL>
0

>  <SCORE.SYSTEM.SOLV>
0

>  <SCORE.SYSTEM.norm>
0

>  <SCORE.heavy>
12

>  <SCORE.norm>
-0.850118

>  <RMSD>
26.859

$$$$
ligand
 OpenBabel11021811503D
libRbt.so/2013.1/901 2013/11/27
 12 13  0  0  0  0  0  0  0  0999 V2000
  -16.8344   31.7605   -3.6352 C   0  0  0  0  0  0  0  0  0  0  0  0
  -14.9222   30.4772   -3.9978 C   0  0  0  0  0  0  0  0  0  0  0  0
  -17.3801   32.9476   -3.3867 N   0  0  0  0  0  0  0  0  0  0  0  0
  -13.5959   30.3261   -4.0818 N   0  0  0  0  0  0  0  0  0  0  0  0
  -15.4901   31.6590   -3.7231 N   0  0  0  0  0  0  0  0  0  0  0  0
  -17.6304   30.6843   -3.8221 N   0  0  0  0  0  0  0  0  0  0  0  0
  -15.9617   26.9868   -4.6335 N   0  0  0  0  0  0  0  0  0  0  0  0
  -17.3545   27.1317   -4.5401 C   0  0  0  0  0  0  0  0  0  0  0  0
  -17.9159   28.3978   -4.2529 N   0  0  0  0  0  0  0  0  0  0  0  0
  -17.1029   29.4641   -4.0916 C   0  0  0  0  0  0  0  0  0  0  0  0
  -15.7137   29.3385   -4.1929 C   0  0  0  0  0  0  0  0  0  0  0  0
  -15.1226   28.1058   -4.4634 C   0  0  0  0  0  0  0  0  0  0  0  0
  1  3  1  0  0  0  0
  1  5  1  0  0  0  0
  1  6  2  0  0  0  0
  2  5  2  0  0  0  0
  2 11  1  0  0  0  0
  2  4  1  0  0  0  0
  6 10  1  0  0  0  0
  7  8  2  0  0  0  0
  7 12  1  0  0  0  0
  8  9  1  0  0  0  0
  9 10  2  0  0  0  0
 10 11  1  0  0  0  0
 11 12  2  0  0  0  0
M  END
>  <CHROM.1>
-16.25795438,29.80348171,-4.06190166,1.56593948,0.04796171,0.19664122

>  <Name>
ligand

>  <RI>
0

>  <Rbt.Current_Directory>
/home/itssahil/PROJECTS/Mol_Feturizer/New_Systems/rnas/4LX5

>  <Rbt.Executable>
rbdock ($Id: //depot/dev/client3/rdock/2013.1/src/exe/rbdock.cxx#4 $)

>  <Rbt.Library>
libRbt.so (2013.1, Build901 2013/11/27)

>  <Rbt.Parameter_File>
/export/apps/rDock/src/rDock_2013.1_src/data/scripts/dock_solv.prm

>  <Rbt.Receptor>
prm/blind_docking_40.prm

>  <SCORE>
-10.2004

>  <SCORE.INTER>
-10.2004

>  <SCORE.INTER.CONST>
1

>  <SCORE.INTER.POLAR>
0

>  <SCORE.INTER.ROT>
0

>  <SCORE.INTER.SOLV>
7.45559

>  <SCORE.INTER.VDW>
-12.8855

>  <SCORE.INTER.norm>
-0.850035

>  <SCORE.INTRA>
0

>  <SCORE.INTRA.DIHEDRAL>
0

>  <SCORE.INTRA.DIHEDRAL.0>
0

>  <SCORE.INTRA.POLAR>
0

>  <SCORE.INTRA.POLAR.0>
0

>  <SCORE.INTRA.REPUL>
0

>  <SCORE.INTRA.REPUL.0>
0

>  <SCORE.INTRA.SOLV>
0

>  <SCORE.INTRA.SOLV.lig_0>
-48.1583

>  <SCORE.INTRA.VDW>
0

>  <SCORE.INTRA.VDW.0>
0

>  <SCORE.INTRA.norm>
0

>  <SCORE.RESTR>
0

>  <SCORE.RESTR.CAVITY>
0

>  <SCORE.RESTR.norm>
0

>  <SCORE.SYSTEM>
0

>  <SCORE.SYSTEM.CONST>
0

>  <SCORE.SYSTEM.DIHEDRAL>
0

>  <SCORE.SYSTEM.SOLV>
0

>  <SCORE.SYSTEM.norm>
0

>  <SCORE.heavy>
12

>  <SCORE.norm>
-0.850035

>  <RMSD>
26.869

$$$$
ligand
 OpenBabel11021811503D
libRbt.so/2013.1/901 2013/11/27
 12 13  0  0  0  0  0  0  0  0999 V2000
  -16.8372   31.7644   -3.6378 C   0  0  0  0  0  0  0  0  0  0  0  0
  -14.9286   30.4774   -4.0063 C   0  0  0  0  0  0  0  0  0  0  0  0
  -17.3799   32.9528   -3.3885 N   0  0  0  0  0  0  0  0  0  0  0  0
  -13.6028   30.3239   -4.0950 N   0  0  0  0  0  0  0  0  0  0  0  0
  -15.4934   31.6605   -3.7306 N   0  0  0  0  0  0  0  0  0  0  0  0
  -17.6358   30.6895   -3.8209 N   0  0  0  0  0  0  0  0  0  0  0  0
  -15.9766   26.9883   -4.6350 N   0  0  0  0  0  0  0  0  0  0  0  0
  -17.3687   27.1358   -4.5367 C   0  0  0  0  0  0  0  0  0  0  0  0
  -17.9269   28.4031   -4.2486 N   0  0  0  0  0  0  0  0  0  0  0  0
  -17.1114   29.4681   -4.0912 C   0  0  0  0  0  0  0  0  0  0  0  0
  -15.7227   29.3400   -4.1974 C   0  0  0  0  0  0  0  0  0  0  0  0
  -15.1349   28.1059   -4.4690 C   0  0  0  0  0  0  0  0  0  0  0  0
  1  3  1  0  0  0  0
  1  5  1  0  0  0  0
  1  6  2  0  0  0  0
  2  5  2  0  0  0  0
  2 11  1  0  0  0  0
  2  4  1  0  0  0  0
  6 10  1  0  0  0  0
  7  8  2  0  0  0  0
  7 12  1  0  0  0  0
  8  9  1  0  0  0  0
  9 10  2  0  0  0  0
 10 11  1  0  0  0  0
 11 12  2  0  0  0  0
M  END
>  <CHROM.1>
-16.26573095,29.80604270,-4.06489995,1.56348343,0.05117580,0.19585433

>  <Name>
ligand

>  <RI>
0

>  <Rbt.Current_Directory>
/home/itssahil/PROJECTS/Mol_Feturizer/New_Systems/rnas/4LX5

>  <Rbt.Executable>
rbdock ($Id: //depot/dev/client3/rdock/2013.1/src/exe/rbdock.cxx#4 $)

>  <Rbt.Library>
libRbt.so (2013.1, Build901 2013/11/27)

>  <Rbt.Parameter_File>
/export/apps/rDock/src/rDock_2013.1_src/data/scripts/dock_solv.prm

>  <Rbt.Receptor>
prm/blind_docking_80.prm

>  <SCORE>
-10.2003

>  <SCORE.INTER>
-10.2003

>  <SCORE.INTER.CONST>
1

>  <SCORE.INTER.POLAR>
0

>  <SCORE.INTER.ROT>
0

>  <SCORE.INTER.SOLV>
7.47551

>  <SCORE.INTER.VDW>
-12.892

>  <SCORE.INTER.norm>
-0.850023

>  <SCORE.INTRA>
0

>  <SCORE.INTRA.DIHEDRAL>
0

>  <SCORE.INTRA.DIHEDRAL.0>
0

>  <SCORE.INTRA.POLAR>
0

>  <SCORE.INTRA.POLAR.0>
0

>  <SCORE.INTRA.REPUL>
0

>  <SCORE.INTRA.REPUL.0>
0

>  <SCORE.INTRA.SOLV>
0

>  <SCORE.INTRA.SOLV.lig_0>
-48.1583

>  <SCORE.INTRA.VDW>
0

>  <SCORE.INTRA.VDW.0>
0

>  <SCORE.INTRA.norm>
0

>  <SCORE.RESTR>
0

>  <SCORE.RESTR.CAVITY>
0

>  <SCORE.RESTR.norm>
0

>  <SCORE.SYSTEM>
0

>  <SCORE.SYSTEM.CONST>
0

>  <SCORE.SYSTEM.DIHEDRAL>
0

>  <SCORE.SYSTEM.SOLV>
0

>  <SCORE.SYSTEM.norm>
0

>  <SCORE.heavy>
12

>  <SCORE.norm>
-0.850023

>  <RMSD>
26.878

$$$$
ligand
 OpenBabel11021811503D
libRbt.so/2013.1/901 2013/11/27
 12 13  0  0  0  0  0  0  0  0999 V2000
  -16.8419   31.7692   -3.6417 C   0  0  0  0  0  0  0  0  0  0  0  0
  -14.9282   30.4884   -4.0055 C   0  0  0  0  0  0  0  0  0  0  0  0
  -17.3891   32.9560   -3.3950 N   0  0  0  0  0  0  0  0  0  0  0  0
  -13.6018   30.3395   -4.0924 N   0  0  0  0  0  0  0  0  0  0  0  0
  -15.4976   31.6699   -3.7326 N   0  0  0  0  0  0  0  0  0  0  0  0
  -17.6364   30.6911   -3.8240 N   0  0  0  0  0  0  0  0  0  0  0  0
  -15.9629   26.9945   -4.6297 N   0  0  0  0  0  0  0  0  0  0  0  0
  -17.3557   27.1372   -4.5334 C   0  0  0  0  0  0  0  0  0  0  0  0
  -17.9187   28.4030   -4.2481 N   0  0  0  0  0  0  0  0  0  0  0  0
  -17.1073   29.4711   -4.0915 C   0  0  0  0  0  0  0  0  0  0  0  0
  -15.7180   29.3479   -4.1958 C   0  0  0  0  0  0  0  0  0  0  0  0
  -15.1254   28.1154   -4.4645 C   0  0  0  0  0  0  0  0  0  0  0  0
  1  3  1  0  0  0  0
  1  5  1  0  0  0  0
  1  6  2  0  0  0  0
  2  5  2  0  0  0  0
  2 11  1  0  0  0  0
  2  4  1  0  0  0  0
  6 10  1  0  0  0  0
  7  8  2  0  0  0  0
  7 12  1  0  0  0  0
  8  9  1  0  0  0  0
  9 10  2  0  0  0  0
 10 11  1  0  0  0  0
 11 12  2  0  0  0  0
M  END
>  <CHROM.1>
-16.26285675,29.81214077,-4.06471757,1.56725376,0.05063908,0.19395862

>  <Name>
ligand

>  <RI>
0

>  <Rbt.Current_Directory>
/home/itssahil/PROJECTS/Mol_Feturizer/New_Systems/rnas/4LX5

>  <Rbt.Executable>
rbdock ($Id: //depot/dev/client3/rdock/2013.1/src/exe/rbdock.cxx#4 $)

>  <Rbt.Library>
libRbt.so (2013.1, Build901 2013/11/27)

>  <Rbt.Parameter_File>
/export/apps/rDock/src/rDock_2013.1_src/data/scripts/dock_solv.prm

>  <Rbt.Receptor>
prm/blind_docking_80.prm

>  <SCORE>
-10.2008

>  <SCORE.INTER>
-10.2008

>  <SCORE.INTER.CONST>
1

>  <SCORE.INTER.POLAR>
0

>  <SCORE.INTER.ROT>
0

>  <SCORE.INTER.SOLV>
7.49672

>  <SCORE.INTER.VDW>
-12.8995

>  <SCORE.INTER.norm>
-0.850068

>  <SCORE.INTRA>
0

>  <SCORE.INTRA.DIHEDRAL>
0

>  <SCORE.INTRA.DIHEDRAL.0>
0

>  <SCORE.INTRA.POLAR>
0

>  <SCORE.INTRA.POLAR.0>
0

>  <SCORE.INTRA.REPUL>
0

>  <SCORE.INTRA.REPUL.0>
0

>  <SCORE.INTRA.SOLV>
0

>  <SCORE.INTRA.SOLV.lig_0>
-48.1583

>  <SCORE.INTRA.VDW>
0

>  <SCORE.INTRA.VDW.0>
0

>  <SCORE.INTRA.norm>
0

>  <SCORE.RESTR>
0

>  <SCORE.RESTR.CAVITY>
0

>  <SCORE.RESTR.norm>
0

>  <SCORE.SYSTEM>
0

>  <SCORE.SYSTEM.CONST>
0

>  <SCORE.SYSTEM.DIHEDRAL>
0

>  <SCORE.SYSTEM.SOLV>
0

>  <SCORE.SYSTEM.norm>
0

>  <SCORE.heavy>
12

>  <SCORE.norm>
-0.850068

>  <RMSD>
26.878

$$$$
ligand
 OpenBabel11021811503D
libRbt.so/2013.1/901 2013/11/27
 12 13  0  0  0  0  0  0  0  0999 V2000
  -16.8383   31.7703   -3.6395 C   0  0  0  0  0  0  0  0  0  0  0  0
  -14.9338   30.4764   -4.0051 C   0  0  0  0  0  0  0  0  0  0  0  0
  -17.3774   32.9616   -3.3961 N   0  0  0  0  0  0  0  0  0  0  0  0
  -13.6087   30.3191   -4.0966 N   0  0  0  0  0  0  0  0  0  0  0  0
  -15.4950   31.6626   -3.7353 N   0  0  0  0  0  0  0  0  0  0  0  0
  -17.6399   30.6962   -3.8135 N   0  0  0  0  0  0  0  0  0  0  0  0
  -15.9919   26.9859   -4.6088 N   0  0  0  0  0  0  0  0  0  0  0  0
  -17.3834   27.1374   -4.5075 C   0  0  0  0  0  0  0  0  0  0  0  0
  -17.9378   28.4079   -4.2259 N   0  0  0  0  0  0  0  0  0  0  0  0
  -17.1193   29.4719   -4.0775 C   0  0  0  0  0  0  0  0  0  0  0  0
  -15.7312   29.3398   -4.1868 C   0  0  0  0  0  0  0  0  0  0  0  0
  -15.1471   28.1026   -4.4522 C   0  0  0  0  0  0  0  0  0  0  0  0
  1  3  1  0  0  0  0
  1  5  1  0  0  0  0
  1  6  2  0  0  0  0
  2  5  2  0  0  0  0
  2 11  1  0  0  0  0
  2  4  1  0  0  0  0
  6 10  1  0  0  0  0
  7  8  2  0  0  0  0
  7 12  1  0  0  0  0
  8  9  1  0  0  0  0
  9 10  2  0  0  0  0
 10 11  1  0  0  0  0
 11 12  2  0  0  0  0
M  END
>  <CHROM.1>
-16.27272028,29.80791584,-4.05572659,1.56057713,0.05350885,0.18967904

>  <Name>
ligand

>  <RI>
0

>  <Rbt.Current_Directory>
/home/itssahil/PROJECTS/Mol_Feturizer/New_Systems/rnas/4LX5

>  <Rbt.Executable>
rbdock ($Id: //depot/dev/client3/rdock/2013.1/src/exe/rbdock.cxx#4 $)

>  <Rbt.Library>
libRbt.so (2013.1, Build901 2013/11/27)

>  <Rbt.Parameter_File>
/export/apps/rDock/src/rDock_2013.1_src/data/scripts/dock_solv.prm

>  <Rbt.Receptor>
prm/blind_docking_100.prm

>  <SCORE>
-10.1554

>  <SCORE.INTER>
-10.1554

>  <SCORE.INTER.CONST>
1

>  <SCORE.INTER.POLAR>
0

>  <SCORE.INTER.ROT>
0

>  <SCORE.INTER.SOLV>
7.48242

>  <SCORE.INTER.VDW>
-12.8644

>  <SCORE.INTER.norm>
-0.846283

>  <SCORE.INTRA>
0

>  <SCORE.INTRA.DIHEDRAL>
0

>  <SCORE.INTRA.DIHEDRAL.0>
0

>  <SCORE.INTRA.POLAR>
0

>  <SCORE.INTRA.POLAR.0>
0

>  <SCORE.INTRA.REPUL>
0

>  <SCORE.INTRA.REPUL.0>
0

>  <SCORE.INTRA.SOLV>
0

>  <SCORE.INTRA.SOLV.lig_0>
-48.1583

>  <SCORE.INTRA.VDW>
0

>  <SCORE.INTRA.VDW.0>
0

>  <SCORE.INTRA.norm>
0

>  <SCORE.RESTR>
0

>  <SCORE.RESTR.CAVITY>
0

>  <SCORE.RESTR.norm>
0

>  <SCORE.SYSTEM>
0

>  <SCORE.SYSTEM.CONST>
0

>  <SCORE.SYSTEM.DIHEDRAL>
0

>  <SCORE.SYSTEM.SOLV>
0

>  <SCORE.SYSTEM.norm>
0

>  <SCORE.heavy>
12

>  <SCORE.norm>
-0.846283

>  <RMSD>
26.881

$$$$
ligand
 OpenBabel11021811503D
libRbt.so/2013.1/901 2013/11/27
 12 13  0  0  0  0  0  0  0  0999 V2000
  -16.8381   31.7662   -3.6328 C   0  0  0  0  0  0  0  0  0  0  0  0
  -14.9298   30.4806   -4.0075 C   0  0  0  0  0  0  0  0  0  0  0  0
  -17.3806   32.9536   -3.3788 N   0  0  0  0  0  0  0  0  0  0  0  0
  -13.6042   30.3274   -4.0981 N   0  0  0  0  0  0  0  0  0  0  0  0
  -15.4944   31.6627   -3.7272 N   0  0  0  0  0  0  0  0  0  0  0  0
  -17.6368   30.6918   -3.8186 N   0  0  0  0  0  0  0  0  0  0  0  0
  -15.9782   26.9935   -4.6469 N   0  0  0  0  0  0  0  0  0  0  0  0
  -17.3703   27.1406   -4.5467 C   0  0  0  0  0  0  0  0  0  0  0  0
  -17.9282   28.4069   -4.2537 N   0  0  0  0  0  0  0  0  0  0  0  0
  -17.1127   29.4714   -4.0936 C   0  0  0  0  0  0  0  0  0  0  0  0
  -15.7241   29.3438   -4.2017 C   0  0  0  0  0  0  0  0  0  0  0  0
  -15.1364   28.1106   -4.4780 C   0  0  0  0  0  0  0  0  0  0  0  0
  1  3  1  0  0  0  0
  1  5  1  0  0  0  0
  1  6  2  0  0  0  0
  2  5  2  0  0  0  0
  2 11  1  0  0  0  0
  2  4  1  0  0  0  0
  6 10  1  0  0  0  0
  7  8  2  0  0  0  0
  7 12  1  0  0  0  0
  8  9  1  0  0  0  0
  9 10  2  0  0  0  0
 10 11  1  0  0  0  0
 11 12  2  0  0  0  0
M  END
>  <CHROM.1>
-16.26697287,29.80928100,-4.06700774,1.56335233,0.05221216,0.19923074

>  <Name>
ligand

>  <RI>
0

>  <Rbt.Current_Directory>
/home/itssahil/PROJECTS/Mol_Feturizer/New_Systems/rnas/4LX5

>  <Rbt.Executable>
rbdock ($Id: //depot/dev/client3/rdock/2013.1/src/exe/rbdock.cxx#4 $)

>  <Rbt.Library>
libRbt.so (2013.1, Build901 2013/11/27)

>  <Rbt.Parameter_File>
/export/apps/rDock/src/rDock_2013.1_src/data/scripts/dock_solv.prm

>  <Rbt.Receptor>
prm/blind_docking_60.prm

>  <SCORE>
-10.1951

>  <SCORE.INTER>
-10.1951

>  <SCORE.INTER.CONST>
1

>  <SCORE.INTER.POLAR>
0

>  <SCORE.INTER.ROT>
0

>  <SCORE.INTER.SOLV>
7.49705

>  <SCORE.INTER.VDW>
-12.8958

>  <SCORE.INTER.norm>
-0.849593

>  <SCORE.INTRA>
0

>  <SCORE.INTRA.DIHEDRAL>
0

>  <SCORE.INTRA.DIHEDRAL.0>
0

>  <SCORE.INTRA.POLAR>
0

>  <SCORE.INTRA.POLAR.0>
0

>  <SCORE.INTRA.REPUL>
0

>  <SCORE.INTRA.REPUL.0>
0

>  <SCORE.INTRA.SOLV>
0

>  <SCORE.INTRA.SOLV.lig_0>
-48.1583

>  <SCORE.INTRA.VDW>
0

>  <SCORE.INTRA.VDW.0>
0

>  <SCORE.INTRA.norm>
0

>  <SCORE.RESTR>
0

>  <SCORE.RESTR.CAVITY>
0

>  <SCORE.RESTR.norm>
0

>  <SCORE.SYSTEM>
0

>  <SCORE.SYSTEM.CONST>
0

>  <SCORE.SYSTEM.DIHEDRAL>
0

>  <SCORE.SYSTEM.SOLV>
0

>  <SCORE.SYSTEM.norm>
0

>  <SCORE.heavy>
12

>  <SCORE.norm>
-0.849593

>  <RMSD>
26.881

$$$$
ligand
 OpenBabel11021811503D
libRbt.so/2013.1/901 2013/11/27
 12 13  0  0  0  0  0  0  0  0999 V2000
  -16.8423   31.7706   -3.6413 C   0  0  0  0  0  0  0  0  0  0  0  0
  -14.9309   30.4873   -4.0082 C   0  0  0  0  0  0  0  0  0  0  0  0
  -17.3875   32.9581   -3.3936 N   0  0  0  0  0  0  0  0  0  0  0  0
  -13.6048   30.3366   -4.0970 N   0  0  0  0  0  0  0  0  0  0  0  0
  -15.4983   31.6695   -3.7342 N   0  0  0  0  0  0  0  0  0  0  0  0
  -17.6385   30.6936   -3.8227 N   0  0  0  0  0  0  0  0  0  0  0  0
  -15.9712   26.9949   -4.6317 N   0  0  0  0  0  0  0  0  0  0  0  0
  -17.3636   27.1395   -4.5334 C   0  0  0  0  0  0  0  0  0  0  0  0
  -17.9246   28.4060   -4.2470 N   0  0  0  0  0  0  0  0  0  0  0  0
  -17.1115   29.4730   -4.0913 C   0  0  0  0  0  0  0  0  0  0  0  0
  -15.7225   29.3479   -4.1976 C   0  0  0  0  0  0  0  0  0  0  0  0
  -15.1319   28.1147   -4.4675 C   0  0  0  0  0  0  0  0  0  0  0  0
  1  3  1  0  0  0  0
  1  5  1  0  0  0  0
  1  6  2  0  0  0  0
  2  5  2  0  0  0  0
  2 11  1  0  0  0  0
  2  4  1  0  0  0  0
  6 10  1  0  0  0  0
  7  8  2  0  0  0  0
  7 12  1  0  0  0  0
  8  9  1  0  0  0  0
  9 10  2  0  0  0  0
 10 11  1  0  0  0  0
 11 12  2  0  0  0  0
M  END
>  <CHROM.1>
-16.26653010,29.81285127,-4.06564701,1.56563915,0.05179306,0.19428713

>  <Name>
ligand

>  <RI>
0

>  <Rbt.Current_Directory>
/home/itssahil/PROJECTS/Mol_Feturizer/New_Systems/rnas/4LX5

>  <Rbt.Executable>
rbdock ($Id: //depot/dev/client3/rdock/2013.1/src/exe/rbdock.cxx#4 $)

>  <Rbt.Library>
libRbt.so (2013.1, Build901 2013/11/27)

>  <Rbt.Parameter_File>
/export/apps/rDock/src/rDock_2013.1_src/data/scripts/dock_solv.prm

>  <Rbt.Receptor>
prm/blind_docking_100.prm

>  <SCORE>
-10.2006

>  <SCORE.INTER>
-10.2006

>  <SCORE.INTER.CONST>
1

>  <SCORE.INTER.POLAR>
0

>  <SCORE.INTER.ROT>
0

>  <SCORE.INTER.SOLV>
7.50068

>  <SCORE.INTER.VDW>
-12.9006

>  <SCORE.INTER.norm>
-0.85005

>  <SCORE.INTRA>
0

>  <SCORE.INTRA.DIHEDRAL>
0

>  <SCORE.INTRA.DIHEDRAL.0>
0

>  <SCORE.INTRA.POLAR>
0

>  <SCORE.INTRA.POLAR.0>
0

>  <SCORE.INTRA.REPUL>
0

>  <SCORE.INTRA.REPUL.0>
0

>  <SCORE.INTRA.SOLV>
0

>  <SCORE.INTRA.SOLV.lig_0>
-48.1583

>  <SCORE.INTRA.VDW>
0

>  <SCORE.INTRA.VDW.0>
0

>  <SCORE.INTRA.norm>
0

>  <SCORE.RESTR>
0

>  <SCORE.RESTR.CAVITY>
0

>  <SCORE.RESTR.norm>
0

>  <SCORE.SYSTEM>
0

>  <SCORE.SYSTEM.CONST>
0

>  <SCORE.SYSTEM.DIHEDRAL>
0

>  <SCORE.SYSTEM.SOLV>
0

>  <SCORE.SYSTEM.norm>
0

>  <SCORE.heavy>
12

>  <SCORE.norm>
-0.85005

>  <RMSD>
26.882

$$$$
ligand
 OpenBabel11021811503D
libRbt.so/2013.1/901 2013/11/27
 12 13  0  0  0  0  0  0  0  0999 V2000
  -16.8542   31.7641   -3.6510 C   0  0  0  0  0  0  0  0  0  0  0  0
  -14.9409   30.4842   -4.0202 C   0  0  0  0  0  0  0  0  0  0  0  0
  -17.4019   32.9519   -3.4104 N   0  0  0  0  0  0  0  0  0  0  0  0
  -13.6150   30.3375   -4.1175 N   0  0  0  0  0  0  0  0  0  0  0  0
  -15.5105   31.6670   -3.7530 N   0  0  0  0  0  0  0  0  0  0  0  0
  -17.6478   30.6826   -3.8162 N   0  0  0  0  0  0  0  0  0  0  0  0
  -15.9731   26.9824   -4.6028 N   0  0  0  0  0  0  0  0  0  0  0  0
  -17.3653   27.1229   -4.4953 C   0  0  0  0  0  0  0  0  0  0  0  0
  -17.9287   28.3900   -4.2167 N   0  0  0  0  0  0  0  0  0  0  0  0
  -17.1183   29.4614   -4.0773 C   0  0  0  0  0  0  0  0  0  0  0  0
  -15.7298   29.3402   -4.1928 C   0  0  0  0  0  0  0  0  0  0  0  0
  -15.1367   28.1067   -4.4554 C   0  0  0  0  0  0  0  0  0  0  0  0
  1  3  1  0  0  0  0
  1  5  1  0  0  0  0
  1  6  2  0  0  0  0
  2  5  2  0  0  0  0
  2 11  1  0  0  0  0
  2  4  1  0  0  0  0
  6 10  1  0  0  0  0
  7  8  2  0  0  0  0
  7 12  1  0  0  0  0
  8  9  1  0  0  0  0
  9 10  2  0  0  0  0
 10 11  1  0  0  0  0
 11 12  2  0  0  0  0
M  END
>  <CHROM.1>
-16.27445633,29.80448844,-4.06115908,1.56778354,0.05984741,0.18470816

>  <Name>
ligand

>  <RI>
0

>  <Rbt.Current_Directory>
/home/itssahil/PROJECTS/Mol_Feturizer/New_Systems/rnas/4LX5

>  <Rbt.Executable>
rbdock ($Id: //depot/dev/client3/rdock/2013.1/src/exe/rbdock.cxx#4 $)

>  <Rbt.Library>
libRbt.so (2013.1, Build901 2013/11/27)

>  <Rbt.Parameter_File>
/export/apps/rDock/src/rDock_2013.1_src/data/scripts/dock_solv.prm

>  <Rbt.Receptor>
prm/blind_docking_100.prm

>  <SCORE>
-10.1358

>  <SCORE.INTER>
-10.1358

>  <SCORE.INTER.CONST>
1

>  <SCORE.INTER.POLAR>
0

>  <SCORE.INTER.ROT>
0

>  <SCORE.INTER.SOLV>
7.58563

>  <SCORE.INTER.VDW>
-12.8857

>  <SCORE.INTER.norm>
-0.84465

>  <SCORE.INTRA>
0

>  <SCORE.INTRA.DIHEDRAL>
0

>  <SCORE.INTRA.DIHEDRAL.0>
0

>  <SCORE.INTRA.POLAR>
0

>  <SCORE.INTRA.POLAR.0>
0

>  <SCORE.INTRA.REPUL>
0

>  <SCORE.INTRA.REPUL.0>
0

>  <SCORE.INTRA.SOLV>
0

>  <SCORE.INTRA.SOLV.lig_0>
-48.1583

>  <SCORE.INTRA.VDW>
0

>  <SCORE.INTRA.VDW.0>
0

>  <SCORE.INTRA.norm>
0

>  <SCORE.RESTR>
0

>  <SCORE.RESTR.CAVITY>
0

>  <SCORE.RESTR.norm>
0

>  <SCORE.SYSTEM>
0

>  <SCORE.SYSTEM.CONST>
0

>  <SCORE.SYSTEM.DIHEDRAL>
0

>  <SCORE.SYSTEM.SOLV>
0

>  <SCORE.SYSTEM.norm>
0

>  <SCORE.heavy>
12

>  <SCORE.norm>
-0.84465

>  <RMSD>
26.882

$$$$
ligand
 OpenBabel11021811503D
libRbt.so/2013.1/901 2013/11/27
 12 13  0  0  0  0  0  0  0  0999 V2000
  -16.8439   31.7697   -3.6416 C   0  0  0  0  0  0  0  0  0  0  0  0
  -14.9326   30.4853   -4.0049 C   0  0  0  0  0  0  0  0  0  0  0  0
  -17.3888   32.9574   -3.3938 N   0  0  0  0  0  0  0  0  0  0  0  0
  -13.6064   30.3336   -4.0902 N   0  0  0  0  0  0  0  0  0  0  0  0
  -15.4997   31.6676   -3.7309 N   0  0  0  0  0  0  0  0  0  0  0  0
  -17.6405   30.6937   -3.8265 N   0  0  0  0  0  0  0  0  0  0  0  0
  -15.9741   26.9946   -4.6357 N   0  0  0  0  0  0  0  0  0  0  0  0
  -17.3667   27.1402   -4.5409 C   0  0  0  0  0  0  0  0  0  0  0  0
  -17.9274   28.4068   -4.2545 N   0  0  0  0  0  0  0  0  0  0  0  0
  -17.1138   29.4729   -4.0952 C   0  0  0  0  0  0  0  0  0  0  0  0
  -15.7247   29.3468   -4.1979 C   0  0  0  0  0  0  0  0  0  0  0  0
  -15.1344   28.1135   -4.4677 C   0  0  0  0  0  0  0  0  0  0  0  0
  1  3  1  0  0  0  0
  1  5  1  0  0  0  0
  1  6  2  0  0  0  0
  2  5  2  0  0  0  0
  2 11  1  0  0  0  0
  2  4  1  0  0  0  0
  6 10  1  0  0  0  0
  7  8  2  0  0  0  0
  7 12  1  0  0  0  0
  8  9  1  0  0  0  0
  9 10  2  0  0  0  0
 10 11  1  0  0  0  0
 11 12  2  0  0  0  0
M  END
>  <CHROM.1>
-16.26862654,29.81205738,-4.06681521,1.56534396,0.04896121,0.19558231

>  <Name>
ligand

>  <RI>
0

>  <Rbt.Current_Directory>
/home/itssahil/PROJECTS/Mol_Feturizer/New_Systems/rnas/4LX5

>  <Rbt.Executable>
rbdock ($Id: //depot/dev/client3/rdock/2013.1/src/exe/rbdock.cxx#4 $)

>  <Rbt.Library>
libRbt.so (2013.1, Build901 2013/11/27)

>  <Rbt.Parameter_File>
/export/apps/rDock/src/rDock_2013.1_src/data/scripts/dock_solv.prm

>  <Rbt.Receptor>
prm/blind_docking_100.prm

>  <SCORE>
-10.1995

>  <SCORE.INTER>
-10.1995

>  <SCORE.INTER.CONST>
1

>  <SCORE.INTER.POLAR>
0

>  <SCORE.INTER.ROT>
0

>  <SCORE.INTER.SOLV>
7.48258

>  <SCORE.INTER.VDW>
-12.8938

>  <SCORE.INTER.norm>
-0.849957

>  <SCORE.INTRA>
0

>  <SCORE.INTRA.DIHEDRAL>
0

>  <SCORE.INTRA.DIHEDRAL.0>
0

>  <SCORE.INTRA.POLAR>
0

>  <SCORE.INTRA.POLAR.0>
0

>  <SCORE.INTRA.REPUL>
0

>  <SCORE.INTRA.REPUL.0>
0

>  <SCORE.INTRA.SOLV>
0

>  <SCORE.INTRA.SOLV.lig_0>
-48.1583

>  <SCORE.INTRA.VDW>
0

>  <SCORE.INTRA.VDW.0>
0

>  <SCORE.INTRA.norm>
0

>  <SCORE.RESTR>
0

>  <SCORE.RESTR.CAVITY>
0

>  <SCORE.RESTR.norm>
0

>  <SCORE.SYSTEM>
0

>  <SCORE.SYSTEM.CONST>
0

>  <SCORE.SYSTEM.DIHEDRAL>
0

>  <SCORE.SYSTEM.SOLV>
0

>  <SCORE.SYSTEM.norm>
0

>  <SCORE.heavy>
12

>  <SCORE.norm>
-0.849957

>  <RMSD>
26.883

$$$$
ligand
 OpenBabel11021811503D
libRbt.so/2013.1/901 2013/11/27
 12 13  0  0  0  0  0  0  0  0999 V2000
  -16.8467   31.7737   -3.6431 C   0  0  0  0  0  0  0  0  0  0  0  0
  -14.9327   30.4918   -4.0010 C   0  0  0  0  0  0  0  0  0  0  0  0
  -17.3940   32.9610   -3.3986 N   0  0  0  0  0  0  0  0  0  0  0  0
  -13.6061   30.3421   -4.0841 N   0  0  0  0  0  0  0  0  0  0  0  0
  -15.5022   31.6737   -3.7303 N   0  0  0  0  0  0  0  0  0  0  0  0
  -17.6412   30.6960   -3.8269 N   0  0  0  0  0  0  0  0  0  0  0  0
  -15.9674   26.9980   -4.6260 N   0  0  0  0  0  0  0  0  0  0  0  0
  -17.3604   27.1415   -4.5335 C   0  0  0  0  0  0  0  0  0  0  0  0
  -17.9236   28.4077   -4.2506 N   0  0  0  0  0  0  0  0  0  0  0  0
  -17.1120   29.4756   -4.0924 C   0  0  0  0  0  0  0  0  0  0  0  0
  -15.7226   29.3515   -4.1927 C   0  0  0  0  0  0  0  0  0  0  0  0
  -15.1298   28.1186   -4.4591 C   0  0  0  0  0  0  0  0  0  0  0  0
  1  3  1  0  0  0  0
  1  5  1  0  0  0  0
  1  6  2  0  0  0  0
  2  5  2  0  0  0  0
  2 11  1  0  0  0  0
  2  4  1  0  0  0  0
  6 10  1  0  0  0  0
  7  8  2  0  0  0  0
  7 12  1  0  0  0  0
  8  9  1  0  0  0  0
  9 10  2  0  0  0  0
 10 11  1  0  0  0  0
 11 12  2  0  0  0  0
M  END
>  <CHROM.1>
-16.26751388,29.81614169,-4.06343542,1.56727041,0.04785702,0.19338411

>  <Name>
ligand

>  <RI>
0

>  <Rbt.Current_Directory>
/home/itssahil/PROJECTS/Mol_Feturizer/New_Systems/rnas/4LX5

>  <Rbt.Executable>
rbdock ($Id: //depot/dev/client3/rdock/2013.1/src/exe/rbdock.cxx#4 $)

>  <Rbt.Library>
libRbt.so (2013.1, Build901 2013/11/27)

>  <Rbt.Parameter_File>
/export/apps/rDock/src/rDock_2013.1_src/data/scripts/dock_solv.prm

>  <Rbt.Receptor>
prm/blind_docking_60.prm

>  <SCORE>
-10.2009

>  <SCORE.INTER>
-10.2009

>  <SCORE.INTER.CONST>
1

>  <SCORE.INTER.POLAR>
0

>  <SCORE.INTER.ROT>
0

>  <SCORE.INTER.SOLV>
7.48925

>  <SCORE.INTER.VDW>
-12.897

>  <SCORE.INTER.norm>
-0.850072

>  <SCORE.INTRA>
0

>  <SCORE.INTRA.DIHEDRAL>
0

>  <SCORE.INTRA.DIHEDRAL.0>
0

>  <SCORE.INTRA.POLAR>
0

>  <SCORE.INTRA.POLAR.0>
0

>  <SCORE.INTRA.REPUL>
0

>  <SCORE.INTRA.REPUL.0>
0

>  <SCORE.INTRA.SOLV>
0

>  <SCORE.INTRA.SOLV.lig_0>
-48.1583

>  <SCORE.INTRA.VDW>
0

>  <SCORE.INTRA.VDW.0>
0

>  <SCORE.INTRA.norm>
0

>  <SCORE.RESTR>
0

>  <SCORE.RESTR.CAVITY>
0

>  <SCORE.RESTR.norm>
0

>  <SCORE.SYSTEM>
0

>  <SCORE.SYSTEM.CONST>
0

>  <SCORE.SYSTEM.DIHEDRAL>
0

>  <SCORE.SYSTEM.SOLV>
0

>  <SCORE.SYSTEM.norm>
0

>  <SCORE.heavy>
12

>  <SCORE.norm>
-0.850072

>  <RMSD>
26.883

$$$$
ligand
 OpenBabel11021811503D
libRbt.so/2013.1/901 2013/11/27
 12 13  0  0  0  0  0  0  0  0999 V2000
  -16.8343   31.7656   -3.6363 C   0  0  0  0  0  0  0  0  0  0  0  0
  -14.9309   30.4766   -4.0241 C   0  0  0  0  0  0  0  0  0  0  0  0
  -17.3730   32.9543   -3.3799 N   0  0  0  0  0  0  0  0  0  0  0  0
  -13.6063   30.3214   -4.1251 N   0  0  0  0  0  0  0  0  0  0  0  0
  -15.4915   31.6600   -3.7413 N   0  0  0  0  0  0  0  0  0  0  0  0
  -17.6360   30.6922   -3.8141 N   0  0  0  0  0  0  0  0  0  0  0  0
  -15.9895   26.9901   -4.6497 N   0  0  0  0  0  0  0  0  0  0  0  0
  -17.3805   27.1394   -4.5387 C   0  0  0  0  0  0  0  0  0  0  0  0
  -17.9343   28.4070   -4.2433 N   0  0  0  0  0  0  0  0  0  0  0  0
  -17.1159   29.4705   -4.0913 C   0  0  0  0  0  0  0  0  0  0  0  0
  -15.7284   29.3407   -4.2102 C   0  0  0  0  0  0  0  0  0  0  0  0
  -15.1447   28.1063   -4.4892 C   0  0  0  0  0  0  0  0  0  0  0  0
  1  3  1  0  0  0  0
  1  5  1  0  0  0  0
  1  6  2  0  0  0  0
  2  5  2  0  0  0  0
  2 11  1  0  0  0  0
  2  4  1  0  0  0  0
  6 10  1  0  0  0  0
  7  8  2  0  0  0  0
  7 12  1  0  0  0  0
  8  9  1  0  0  0  0
  9 10  2  0  0  0  0
 10 11  1  0  0  0  0
 11 12  2  0  0  0  0
M  END
>  <CHROM.1>
-16.26950108,29.80721562,-4.07198077,1.56032687,0.05970483,0.19782859

>  <Name>
ligand

>  <RI>
0

>  <Rbt.Current_Directory>
/home/itssahil/PROJECTS/Mol_Feturizer/New_Systems/rnas/4LX5

>  <Rbt.Executable>
rbdock ($Id: //depot/dev/client3/rdock/2013.1/src/exe/rbdock.cxx#4 $)

>  <Rbt.Library>
libRbt.so (2013.1, Build901 2013/11/27)

>  <Rbt.Parameter_File>
/export/apps/rDock/src/rDock_2013.1_src/data/scripts/dock_solv.prm

>  <Rbt.Receptor>
prm/blind_docking_60.prm

>  <SCORE>
-10.1926

>  <SCORE.INTER>
-10.1926

>  <SCORE.INTER.CONST>
1

>  <SCORE.INTER.POLAR>
0

>  <SCORE.INTER.ROT>
0

>  <SCORE.INTER.SOLV>
7.5253

>  <SCORE.INTER.VDW>
-12.9035

>  <SCORE.INTER.norm>
-0.84938

>  <SCORE.INTRA>
0

>  <SCORE.INTRA.DIHEDRAL>
0

>  <SCORE.INTRA.DIHEDRAL.0>
0

>  <SCORE.INTRA.POLAR>
0

>  <SCORE.INTRA.POLAR.0>
0

>  <SCORE.INTRA.REPUL>
0

>  <SCORE.INTRA.REPUL.0>
0

>  <SCORE.INTRA.SOLV>
0

>  <SCORE.INTRA.SOLV.lig_0>
-48.1583

>  <SCORE.INTRA.VDW>
0

>  <SCORE.INTRA.VDW.0>
0

>  <SCORE.INTRA.norm>
0

>  <SCORE.RESTR>
0

>  <SCORE.RESTR.CAVITY>
0

>  <SCORE.RESTR.norm>
0

>  <SCORE.SYSTEM>
0

>  <SCORE.SYSTEM.CONST>
0

>  <SCORE.SYSTEM.DIHEDRAL>
0

>  <SCORE.SYSTEM.SOLV>
0

>  <SCORE.SYSTEM.norm>
0

>  <SCORE.heavy>
12

>  <SCORE.norm>
-0.84938

>  <RMSD>
26.883

$$$$
ligand
 OpenBabel11021811503D
libRbt.so/2013.1/901 2013/11/27
 12 13  0  0  0  0  0  0  0  0999 V2000
  -16.8856   31.7598   -3.6663 C   0  0  0  0  0  0  0  0  0  0  0  0
  -14.9593   30.4947   -4.0181 C   0  0  0  0  0  0  0  0  0  0  0  0
  -17.4444   32.9431   -3.4287 N   0  0  0  0  0  0  0  0  0  0  0  0
  -13.6315   30.3577   -4.1017 N   0  0  0  0  0  0  0  0  0  0  0  0
  -15.5403   31.6726   -3.7543 N   0  0  0  0  0  0  0  0  0  0  0  0
  -17.6696   30.6731   -3.8425 N   0  0  0  0  0  0  0  0  0  0  0  0
  -15.9600   26.9870   -4.6199 N   0  0  0  0  0  0  0  0  0  0  0  0
  -17.3543   27.1172   -4.5269 C   0  0  0  0  0  0  0  0  0  0  0  0
  -17.9297   28.3795   -4.2513 N   0  0  0  0  0  0  0  0  0  0  0  0
  -17.1286   29.4563   -4.1007 C   0  0  0  0  0  0  0  0  0  0  0  0
  -15.7381   29.3454   -4.2018 C   0  0  0  0  0  0  0  0  0  0  0  0
  -15.1334   28.1168   -4.4610 C   0  0  0  0  0  0  0  0  0  0  0  0
  1  3  1  0  0  0  0
  1  5  1  0  0  0  0
  1  6  2  0  0  0  0
  2  5  2  0  0  0  0
  2 11  1  0  0  0  0
  2  4  1  0  0  0  0
  6 10  1  0  0  0  0
  7  8  2  0  0  0  0
  7 12  1  0  0  0  0
  8  9  1  0  0  0  0
  9 10  2  0  0  0  0
 10 11  1  0  0  0  0
 11 12  2  0  0  0  0
M  END
>  <CHROM.1>
-16.28747339,29.80546746,-4.07486624,1.57683072,0.05074567,0.18660261

>  <Name>
ligand

>  <RI>
0

>  <Rbt.Current_Directory>
/home/itssahil/PROJECTS/Mol_Feturizer/New_Systems/rnas/4LX5

>  <Rbt.Executable>
rbdock ($Id: //depot/dev/client3/rdock/2013.1/src/exe/rbdock.cxx#4 $)

>  <Rbt.Library>
libRbt.so (2013.1, Build901 2013/11/27)

>  <Rbt.Parameter_File>
/export/apps/rDock/src/rDock_2013.1_src/data/scripts/dock_solv.prm

>  <Rbt.Receptor>
prm/blind_docking_80.prm

>  <SCORE>
-10.1969

>  <SCORE.INTER>
-10.1969

>  <SCORE.INTER.CONST>
1

>  <SCORE.INTER.POLAR>
0

>  <SCORE.INTER.ROT>
0

>  <SCORE.INTER.SOLV>
7.62257

>  <SCORE.INTER.VDW>
-12.9388

>  <SCORE.INTER.norm>
-0.849745

>  <SCORE.INTRA>
0

>  <SCORE.INTRA.DIHEDRAL>
0

>  <SCORE.INTRA.DIHEDRAL.0>
0

>  <SCORE.INTRA.POLAR>
0

>  <SCORE.INTRA.POLAR.0>
0

>  <SCORE.INTRA.REPUL>
0

>  <SCORE.INTRA.REPUL.0>
0

>  <SCORE.INTRA.SOLV>
0

>  <SCORE.INTRA.SOLV.lig_0>
-48.1583

>  <SCORE.INTRA.VDW>
0

>  <SCORE.INTRA.VDW.0>
0

>  <SCORE.INTRA.norm>
0

>  <SCORE.RESTR>
0

>  <SCORE.RESTR.CAVITY>
0

>  <SCORE.RESTR.norm>
0

>  <SCORE.SYSTEM>
0

>  <SCORE.SYSTEM.CONST>
0

>  <SCORE.SYSTEM.DIHEDRAL>
0

>  <SCORE.SYSTEM.SOLV>
0

>  <SCORE.SYSTEM.norm>
0

>  <SCORE.heavy>
12

>  <SCORE.norm>
-0.849745

>  <RMSD>
26.898

$$$$
ligand
 OpenBabel11021811503D
libRbt.so/2013.1/901 2013/11/27
 12 13  0  0  0  0  0  0  0  0999 V2000
  -16.8557   31.6777   -3.6812 C   0  0  0  0  0  0  0  0  0  0  0  0
  -14.9831   30.3622   -4.1263 C   0  0  0  0  0  0  0  0  0  0  0  0
  -17.3697   32.8738   -3.4096 N   0  0  0  0  0  0  0  0  0  0  0  0
  -13.6645   30.1886   -4.2679 N   0  0  0  0  0  0  0  0  0  0  0  0
  -15.5184   31.5534   -3.8276 N   0  0  0  0  0  0  0  0  0  0  0  0
  -17.6772   30.6153   -3.8330 N   0  0  0  0  0  0  0  0  0  0  0  0
  -16.1085   26.8903   -4.7151 N   0  0  0  0  0  0  0  0  0  0  0  0
  -17.4932   27.0588   -4.5612 C   0  0  0  0  0  0  0  0  0  0  0  0
  -18.0201   28.3342   -4.2503 N   0  0  0  0  0  0  0  0  0  0  0  0
  -17.1828   29.3864   -4.1248 C   0  0  0  0  0  0  0  0  0  0  0  0
  -15.8016   29.2373   -4.2864 C   0  0  0  0  0  0  0  0  0  0  0  0
  -15.2439   27.9947   -4.5820 C   0  0  0  0  0  0  0  0  0  0  0  0
  1  3  1  0  0  0  0
  1  5  1  0  0  0  0
  1  6  2  0  0  0  0
  2  5  2  0  0  0  0
  2 11  1  0  0  0  0
  2  4  1  0  0  0  0
  6 10  1  0  0  0  0
  7  8  2  0  0  0  0
  7 12  1  0  0  0  0
  8  9  1  0  0  0  0
  9 10  2  0  0  0  0
 10 11  1  0  0  0  0
 11 12  2  0  0  0  0
M  END
>  <CHROM.1>
-16.33166035,29.71135002,-4.13202235,1.54065457,0.08730053,0.19839528

>  <Name>
ligand

>  <RI>
0

>  <Rbt.Current_Directory>
/home/itssahil/PROJECTS/Mol_Feturizer/New_Systems/rnas/4LX5

>  <Rbt.Executable>
rbdock ($Id: //depot/dev/client3/rdock/2013.1/src/exe/rbdock.cxx#4 $)

>  <Rbt.Library>
libRbt.so (2013.1, Build901 2013/11/27)

>  <Rbt.Parameter_File>
/export/apps/rDock/src/rDock_2013.1_src/data/scripts/dock_solv.prm

>  <Rbt.Receptor>
prm/blind_docking_60.prm

>  <SCORE>
-10.1224

>  <SCORE.INTER>
-10.1224

>  <SCORE.INTER.CONST>
1

>  <SCORE.INTER.POLAR>
0

>  <SCORE.INTER.ROT>
0

>  <SCORE.INTER.SOLV>
7.62756

>  <SCORE.INTER.VDW>
-12.8908

>  <SCORE.INTER.norm>
-0.843532

>  <SCORE.INTRA>
0

>  <SCORE.INTRA.DIHEDRAL>
0

>  <SCORE.INTRA.DIHEDRAL.0>
0

>  <SCORE.INTRA.POLAR>
0

>  <SCORE.INTRA.POLAR.0>
0

>  <SCORE.INTRA.REPUL>
0

>  <SCORE.INTRA.REPUL.0>
0

>  <SCORE.INTRA.SOLV>
0

>  <SCORE.INTRA.SOLV.lig_0>
-48.1583

>  <SCORE.INTRA.VDW>
0

>  <SCORE.INTRA.VDW.0>
0

>  <SCORE.INTRA.norm>
0

>  <SCORE.RESTR>
0

>  <SCORE.RESTR.CAVITY>
0

>  <SCORE.RESTR.norm>
0

>  <SCORE.SYSTEM>
0

>  <SCORE.SYSTEM.CONST>
0

>  <SCORE.SYSTEM.DIHEDRAL>
0

>  <SCORE.SYSTEM.SOLV>
0

>  <SCORE.SYSTEM.norm>
0

>  <SCORE.heavy>
12

>  <SCORE.norm>
-0.843532

>  <RMSD>
26.907

$$$$
ligand
 OpenBabel11021811503D
libRbt.so/2013.1/901 2013/11/27
 12 13  0  0  0  0  0  0  0  0999 V2000
  -16.9669   31.8240   -3.5832 C   0  0  0  0  0  0  0  0  0  0  0  0
  -15.0390   30.6038   -4.0621 C   0  0  0  0  0  0  0  0  0  0  0  0
  -17.5359   32.9938   -3.3062 N   0  0  0  0  0  0  0  0  0  0  0  0
  -13.7164   30.4973   -4.2310 N   0  0  0  0  0  0  0  0  0  0  0  0
  -15.6283   31.7677   -3.7574 N   0  0  0  0  0  0  0  0  0  0  0  0
  -17.7358   30.7201   -3.7126 N   0  0  0  0  0  0  0  0  0  0  0  0
  -15.9966   27.0755   -4.6110 N   0  0  0  0  0  0  0  0  0  0  0  0
  -17.3846   27.1737   -4.4284 C   0  0  0  0  0  0  0  0  0  0  0  0
  -17.9696   28.4220   -4.1121 N   0  0  0  0  0  0  0  0  0  0  0  0
  -17.1851   29.5165   -4.0093 C   0  0  0  0  0  0  0  0  0  0  0  0
  -15.8017   29.4375   -4.1996 C   0  0  0  0  0  0  0  0  0  0  0  0
  -15.1873   28.2236   -4.5013 C   0  0  0  0  0  0  0  0  0  0  0  0
  1  3  1  0  0  0  0
  1  5  1  0  0  0  0
  1  6  2  0  0  0  0
  2  5  2  0  0  0  0
  2 11  1  0  0  0  0
  2  4  1  0  0  0  0
  6 10  1  0  0  0  0
  7  8  2  0  0  0  0
  7 12  1  0  0  0  0
  8  9  1  0  0  0  0
  9 10  2  0  0  0  0
 10 11  1  0  0  0  0
 11 12  2  0  0  0  0
M  END
>  <CHROM.1>
-16.35211298,29.88464568,-4.03611972,1.58723209,0.11795520,0.18852733

>  <Name>
ligand

>  <RI>
0

>  <Rbt.Current_Directory>
/home/itssahil/PROJECTS/Mol_Feturizer/New_Systems/rnas/4LX5

>  <Rbt.Executable>
rbdock ($Id: //depot/dev/client3/rdock/2013.1/src/exe/rbdock.cxx#4 $)

>  <Rbt.Library>
libRbt.so (2013.1, Build901 2013/11/27)

>  <Rbt.Parameter_File>
/export/apps/rDock/src/rDock_2013.1_src/data/scripts/dock_solv.prm

>  <Rbt.Receptor>
prm/blind_docking_80.prm

>  <SCORE>
-10.164

>  <SCORE.INTER>
-10.164

>  <SCORE.INTER.CONST>
1

>  <SCORE.INTER.POLAR>
0

>  <SCORE.INTER.ROT>
0

>  <SCORE.INTER.SOLV>
8.56022

>  <SCORE.INTER.VDW>
-13.2294

>  <SCORE.INTER.norm>
-0.847004

>  <SCORE.INTRA>
0

>  <SCORE.INTRA.DIHEDRAL>
0

>  <SCORE.INTRA.DIHEDRAL.0>
0

>  <SCORE.INTRA.POLAR>
0

>  <SCORE.INTRA.POLAR.0>
0

>  <SCORE.INTRA.REPUL>
0

>  <SCORE.INTRA.REPUL.0>
0

>  <SCORE.INTRA.SOLV>
0

>  <SCORE.INTRA.SOLV.lig_0>
-48.1583

>  <SCORE.INTRA.VDW>
0

>  <SCORE.INTRA.VDW.0>
0

>  <SCORE.INTRA.norm>
0

>  <SCORE.RESTR>
0

>  <SCORE.RESTR.CAVITY>
0

>  <SCORE.RESTR.norm>
0

>  <SCORE.SYSTEM>
0

>  <SCORE.SYSTEM.CONST>
0

>  <SCORE.SYSTEM.DIHEDRAL>
0

>  <SCORE.SYSTEM.SOLV>
0

>  <SCORE.SYSTEM.norm>
0

>  <SCORE.heavy>
12

>  <SCORE.norm>
-0.847004

>  <RMSD>
26.979

$$$$
ligand
 OpenBabel11021811503D
libRbt.so/2013.1/901 2013/11/27
 12 13  0  0  0  0  0  0  0  0999 V2000
  -16.9655   31.8284   -3.5941 C   0  0  0  0  0  0  0  0  0  0  0  0
  -15.0404   30.6140   -4.0984 C   0  0  0  0  0  0  0  0  0  0  0  0
  -17.5351   32.9972   -3.3140 N   0  0  0  0  0  0  0  0  0  0  0  0
  -13.7204   30.5124   -4.2887 N   0  0  0  0  0  0  0  0  0  0  0  0
  -15.6298   31.7770   -3.7903 N   0  0  0  0  0  0  0  0  0  0  0  0
  -17.7315   30.7204   -3.7047 N   0  0  0  0  0  0  0  0  0  0  0  0
  -15.9913   27.0786   -4.6121 N   0  0  0  0  0  0  0  0  0  0  0  0
  -17.3765   27.1717   -4.4070 C   0  0  0  0  0  0  0  0  0  0  0  0
  -17.9617   28.4192   -4.0878 N   0  0  0  0  0  0  0  0  0  0  0  0
  -17.1805   29.5176   -4.0040 C   0  0  0  0  0  0  0  0  0  0  0  0
  -15.8001   29.4437   -4.2168 C   0  0  0  0  0  0  0  0  0  0  0  0
  -15.1854   28.2308   -4.5222 C   0  0  0  0  0  0  0  0  0  0  0  0
  1  3  1  0  0  0  0
  1  5  1  0  0  0  0
  1  6  2  0  0  0  0
  2  5  2  0  0  0  0
  2 11  1  0  0  0  0
  2  4  1  0  0  0  0
  6 10  1  0  0  0  0
  7  8  2  0  0  0  0
  7 12  1  0  0  0  0
  8  9  1  0  0  0  0
  9 10  2  0  0  0  0
 10 11  1  0  0  0  0
 11 12  2  0  0  0  0
M  END
>  <CHROM.1>
-16.34972232,29.88927823,-4.04664923,1.58851754,0.13513619,0.18290117

>  <Name>
ligand

>  <RI>
0

>  <Rbt.Current_Directory>
/home/itssahil/PROJECTS/Mol_Feturizer/New_Systems/rnas/4LX5

>  <Rbt.Executable>
rbdock ($Id: //depot/dev/client3/rdock/2013.1/src/exe/rbdock.cxx#4 $)

>  <Rbt.Library>
libRbt.so (2013.1, Build901 2013/11/27)

>  <Rbt.Parameter_File>
/export/apps/rDock/src/rDock_2013.1_src/data/scripts/dock_solv.prm

>  <Rbt.Receptor>
prm/blind_docking_100.prm

>  <SCORE>
-10.2161

>  <SCORE.INTER>
-10.2161

>  <SCORE.INTER.CONST>
1

>  <SCORE.INTER.POLAR>
0

>  <SCORE.INTER.ROT>
0

>  <SCORE.INTER.SOLV>
8.66916

>  <SCORE.INTER.VDW>
-13.3005

>  <SCORE.INTER.norm>
-0.851344

>  <SCORE.INTRA>
0

>  <SCORE.INTRA.DIHEDRAL>
0

>  <SCORE.INTRA.DIHEDRAL.0>
0

>  <SCORE.INTRA.POLAR>
0

>  <SCORE.INTRA.POLAR.0>
0

>  <SCORE.INTRA.REPUL>
0

>  <SCORE.INTRA.REPUL.0>
0

>  <SCORE.INTRA.SOLV>
0

>  <SCORE.INTRA.SOLV.lig_0>
-48.1583

>  <SCORE.INTRA.VDW>
0

>  <SCORE.INTRA.VDW.0>
0

>  <SCORE.INTRA.norm>
0

>  <SCORE.RESTR>
0

>  <SCORE.RESTR.CAVITY>
0

>  <SCORE.RESTR.norm>
0

>  <SCORE.SYSTEM>
0

>  <SCORE.SYSTEM.CONST>
0

>  <SCORE.SYSTEM.DIHEDRAL>
0

>  <SCORE.SYSTEM.SOLV>
0

>  <SCORE.SYSTEM.norm>
0

>  <SCORE.heavy>
12

>  <SCORE.norm>
-0.851344

>  <RMSD>
26.981

$$$$
ligand
 OpenBabel11021811503D
libRbt.so/2013.1/901 2013/11/27
 12 13  0  0  0  0  0  0  0  0999 V2000
  -16.9670   31.8305   -3.5944 C   0  0  0  0  0  0  0  0  0  0  0  0
  -15.0411   30.6161   -4.0955 C   0  0  0  0  0  0  0  0  0  0  0  0
  -17.5370   32.9993   -3.3153 N   0  0  0  0  0  0  0  0  0  0  0  0
  -13.7208   30.5144   -4.2837 N   0  0  0  0  0  0  0  0  0  0  0  0
  -15.6310   31.7790   -3.7884 N   0  0  0  0  0  0  0  0  0  0  0  0
  -17.7328   30.7225   -3.7062 N   0  0  0  0  0  0  0  0  0  0  0  0
  -15.9911   27.0806   -4.6105 N   0  0  0  0  0  0  0  0  0  0  0  0
  -17.3766   27.1738   -4.4077 C   0  0  0  0  0  0  0  0  0  0  0  0
  -17.9624   28.4213   -4.0895 N   0  0  0  0  0  0  0  0  0  0  0  0
  -17.1813   29.5197   -4.0045 C   0  0  0  0  0  0  0  0  0  0  0  0
  -15.8006   29.4457   -4.2151 C   0  0  0  0  0  0  0  0  0  0  0  0
  -15.1854   28.2328   -4.5194 C   0  0  0  0  0  0  0  0  0  0  0  0
  1  3  1  0  0  0  0
  1  5  1  0  0  0  0
  1  6  2  0  0  0  0
  2  5  2  0  0  0  0
  2 11  1  0  0  0  0
  2  4  1  0  0  0  0
  6 10  1  0  0  0  0
  7  8  2  0  0  0  0
  7 12  1  0  0  0  0
  8  9  1  0  0  0  0
  9 10  2  0  0  0  0
 10 11  1  0  0  0  0
 11 12  2  0  0  0  0
M  END
>  <CHROM.1>
-16.35045105,29.89134924,-4.04584767,1.58880488,0.13354297,0.18280502

>  <Name>
ligand

>  <RI>
0

>  <Rbt.Current_Directory>
/home/itssahil/PROJECTS/Mol_Feturizer/New_Systems/rnas/4LX5

>  <Rbt.Executable>
rbdock ($Id: //depot/dev/client3/rdock/2013.1/src/exe/rbdock.cxx#4 $)

>  <Rbt.Library>
libRbt.so (2013.1, Build901 2013/11/27)

>  <Rbt.Parameter_File>
/export/apps/rDock/src/rDock_2013.1_src/data/scripts/dock_solv.prm

>  <Rbt.Receptor>
prm/blind_docking_100.prm

>  <SCORE>
-10.2175

>  <SCORE.INTER>
-10.2175

>  <SCORE.INTER.CONST>
1

>  <SCORE.INTER.POLAR>
0

>  <SCORE.INTER.ROT>
0

>  <SCORE.INTER.SOLV>
8.66116

>  <SCORE.INTER.VDW>
-13.2987

>  <SCORE.INTER.norm>
-0.851458

>  <SCORE.INTRA>
0

>  <SCORE.INTRA.DIHEDRAL>
0

>  <SCORE.INTRA.DIHEDRAL.0>
0

>  <SCORE.INTRA.POLAR>
0

>  <SCORE.INTRA.POLAR.0>
0

>  <SCORE.INTRA.REPUL>
0

>  <SCORE.INTRA.REPUL.0>
0

>  <SCORE.INTRA.SOLV>
0

>  <SCORE.INTRA.SOLV.lig_0>
-48.1583

>  <SCORE.INTRA.VDW>
0

>  <SCORE.INTRA.VDW.0>
0

>  <SCORE.INTRA.norm>
0

>  <SCORE.RESTR>
0

>  <SCORE.RESTR.CAVITY>
0

>  <SCORE.RESTR.norm>
0

>  <SCORE.SYSTEM>
0

>  <SCORE.SYSTEM.CONST>
0

>  <SCORE.SYSTEM.DIHEDRAL>
0

>  <SCORE.SYSTEM.SOLV>
0

>  <SCORE.SYSTEM.norm>
0

>  <SCORE.heavy>
12

>  <SCORE.norm>
-0.851458

>  <RMSD>
26.983

$$$$
ligand
 OpenBabel11021811503D
libRbt.so/2013.1/901 2013/11/27
 12 13  0  0  0  0  0  0  0  0999 V2000
  -16.9688   31.8280   -3.5947 C   0  0  0  0  0  0  0  0  0  0  0  0
  -15.0417   30.6172   -4.1001 C   0  0  0  0  0  0  0  0  0  0  0  0
  -17.5399   32.9952   -3.3111 N   0  0  0  0  0  0  0  0  0  0  0  0
  -13.7213   30.5175   -4.2885 N   0  0  0  0  0  0  0  0  0  0  0  0
  -15.6327   31.7785   -3.7887 N   0  0  0  0  0  0  0  0  0  0  0  0
  -17.7336   30.7197   -3.7108 N   0  0  0  0  0  0  0  0  0  0  0  0
  -15.9885   27.0829   -4.6287 N   0  0  0  0  0  0  0  0  0  0  0  0
  -17.3741   27.1740   -4.4257 C   0  0  0  0  0  0  0  0  0  0  0  0
  -17.9610   28.4198   -4.1028 N   0  0  0  0  0  0  0  0  0  0  0  0
  -17.1809   29.5186   -4.0136 C   0  0  0  0  0  0  0  0  0  0  0  0
  -15.8002   29.4466   -4.2243 C   0  0  0  0  0  0  0  0  0  0  0  0
  -15.1838   28.2355   -4.5331 C   0  0  0  0  0  0  0  0  0  0  0  0
  1  3  1  0  0  0  0
  1  5  1  0  0  0  0
  1  6  2  0  0  0  0
  2  5  2  0  0  0  0
  2 11  1  0  0  0  0
  2  4  1  0  0  0  0
  6 10  1  0  0  0  0
  7  8  2  0  0  0  0
  7 12  1  0  0  0  0
  8  9  1  0  0  0  0
  9 10  2  0  0  0  0
 10 11  1  0  0  0  0
 11 12  2  0  0  0  0
M  END
>  <CHROM.1>
-16.35043837,29.89111541,-4.05340299,1.58972697,0.13358530,0.18648632

>  <Name>
ligand

>  <RI>
0

>  <Rbt.Current_Directory>
/home/itssahil/PROJECTS/Mol_Feturizer/New_Systems/rnas/4LX5

>  <Rbt.Executable>
rbdock ($Id: //depot/dev/client3/rdock/2013.1/src/exe/rbdock.cxx#4 $)

>  <Rbt.Library>
libRbt.so (2013.1, Build901 2013/11/27)

>  <Rbt.Parameter_File>
/export/apps/rDock/src/rDock_2013.1_src/data/scripts/dock_solv.prm

>  <Rbt.Receptor>
prm/blind_docking_80.prm

>  <SCORE>
-10.1947

>  <SCORE.INTER>
-10.1947

>  <SCORE.INTER.CONST>
1

>  <SCORE.INTER.POLAR>
0

>  <SCORE.INTER.ROT>
0

>  <SCORE.INTER.SOLV>
8.67866

>  <SCORE.INTER.VDW>
-13.2893

>  <SCORE.INTER.norm>
-0.849555

>  <SCORE.INTRA>
0

>  <SCORE.INTRA.DIHEDRAL>
0

>  <SCORE.INTRA.DIHEDRAL.0>
0

>  <SCORE.INTRA.POLAR>
0

>  <SCORE.INTRA.POLAR.0>
0

>  <SCORE.INTRA.REPUL>
0

>  <SCORE.INTRA.REPUL.0>
0

>  <SCORE.INTRA.SOLV>
0

>  <SCORE.INTRA.SOLV.lig_0>
-48.1583

>  <SCORE.INTRA.VDW>
0

>  <SCORE.INTRA.VDW.0>
0

>  <SCORE.INTRA.norm>
0

>  <SCORE.RESTR>
0

>  <SCORE.RESTR.CAVITY>
0

>  <SCORE.RESTR.norm>
0

>  <SCORE.SYSTEM>
0

>  <SCORE.SYSTEM.CONST>
0

>  <SCORE.SYSTEM.DIHEDRAL>
0

>  <SCORE.SYSTEM.SOLV>
0

>  <SCORE.SYSTEM.norm>
0

>  <SCORE.heavy>
12

>  <SCORE.norm>
-0.849555

>  <RMSD>
26.985

$$$$
ligand
 OpenBabel11021811503D
libRbt.so/2013.1/901 2013/11/27
 12 13  0  0  0  0  0  0  0  0999 V2000
  -16.9726   31.8311   -3.5844 C   0  0  0  0  0  0  0  0  0  0  0  0
  -15.0456   30.6309   -4.1148 C   0  0  0  0  0  0  0  0  0  0  0  0
  -17.5465   32.9953   -3.2941 N   0  0  0  0  0  0  0  0  0  0  0  0
  -13.7273   30.5385   -4.3209 N   0  0  0  0  0  0  0  0  0  0  0  0
  -15.6390   31.7890   -3.7964 N   0  0  0  0  0  0  0  0  0  0  0  0
  -17.7326   30.7184   -3.6893 N   0  0  0  0  0  0  0  0  0  0  0  0
  -15.9793   27.0908   -4.6278 N   0  0  0  0  0  0  0  0  0  0  0  0
  -17.3626   27.1742   -4.4061 C   0  0  0  0  0  0  0  0  0  0  0  0
  -17.9522   28.4169   -4.0764 N   0  0  0  0  0  0  0  0  0  0  0  0
  -17.1772   29.5202   -3.9985 C   0  0  0  0  0  0  0  0  0  0  0  0
  -15.7990   29.4559   -4.2278 C   0  0  0  0  0  0  0  0  0  0  0  0
  -15.1799   28.2480   -4.5439 C   0  0  0  0  0  0  0  0  0  0  0  0
  1  3  1  0  0  0  0
  1  5  1  0  0  0  0
  1  6  2  0  0  0  0
  2  5  2  0  0  0  0
  2 11  1  0  0  0  0
  2  4  1  0  0  0  0
  6 10  1  0  0  0  0
  7  8  2  0  0  0  0
  7 12  1  0  0  0  0
  8  9  1  0  0  0  0
  9 10  2  0  0  0  0
 10 11  1  0  0  0  0
 11 12  2  0  0  0  0
M  END
>  <CHROM.1>
-16.34945274,29.89741503,-4.04987540,1.59286274,0.14789467,0.18519986

>  <Name>
ligand

>  <RI>
0

>  <Rbt.Current_Directory>
/home/itssahil/PROJECTS/Mol_Feturizer/New_Systems/rnas/4LX5

>  <Rbt.Executable>
rbdock ($Id: //depot/dev/client3/rdock/2013.1/src/exe/rbdock.cxx#4 $)

>  <Rbt.Library>
libRbt.so (2013.1, Build901 2013/11/27)

>  <Rbt.Parameter_File>
/export/apps/rDock/src/rDock_2013.1_src/data/scripts/dock_solv.prm

>  <Rbt.Receptor>
prm/blind_docking_100.prm

>  <SCORE>
-10.1959

>  <SCORE.INTER>
-10.1959

>  <SCORE.INTER.CONST>
1

>  <SCORE.INTER.POLAR>
0

>  <SCORE.INTER.ROT>
0

>  <SCORE.INTER.SOLV>
8.82951

>  <SCORE.INTER.VDW>
-13.3404

>  <SCORE.INTER.norm>
-0.849655

>  <SCORE.INTRA>
0

>  <SCORE.INTRA.DIHEDRAL>
0

>  <SCORE.INTRA.DIHEDRAL.0>
0

>  <SCORE.INTRA.POLAR>
0

>  <SCORE.INTRA.POLAR.0>
0

>  <SCORE.INTRA.REPUL>
0

>  <SCORE.INTRA.REPUL.0>
0

>  <SCORE.INTRA.SOLV>
0

>  <SCORE.INTRA.SOLV.lig_0>
-48.1583

>  <SCORE.INTRA.VDW>
0

>  <SCORE.INTRA.VDW.0>
0

>  <SCORE.INTRA.norm>
0

>  <SCORE.RESTR>
0

>  <SCORE.RESTR.CAVITY>
0

>  <SCORE.RESTR.norm>
0

>  <SCORE.SYSTEM>
0

>  <SCORE.SYSTEM.CONST>
0

>  <SCORE.SYSTEM.DIHEDRAL>
0

>  <SCORE.SYSTEM.SOLV>
0

>  <SCORE.SYSTEM.norm>
0

>  <SCORE.heavy>
12

>  <SCORE.norm>
-0.849655

>  <RMSD>
26.987

$$$$
ligand
 OpenBabel11021811503D
libRbt.so/2013.1/901 2013/11/27
 12 13  0  0  0  0  0  0  0  0999 V2000
  -16.9850   31.8099   -3.5879 C   0  0  0  0  0  0  0  0  0  0  0  0
  -15.0562   30.6011   -4.0915 C   0  0  0  0  0  0  0  0  0  0  0  0
  -17.5570   32.9759   -3.3011 N   0  0  0  0  0  0  0  0  0  0  0  0
  -13.7351   30.5020   -4.2752 N   0  0  0  0  0  0  0  0  0  0  0  0
  -15.6482   31.7610   -3.7769 N   0  0  0  0  0  0  0  0  0  0  0  0
  -17.7496   30.7024   -3.7120 N   0  0  0  0  0  0  0  0  0  0  0  0
  -16.0016   27.0695   -4.6401 N   0  0  0  0  0  0  0  0  0  0  0  0
  -17.3880   27.1599   -4.4420 C   0  0  0  0  0  0  0  0  0  0  0  0
  -17.9759   28.4043   -4.1157 N   0  0  0  0  0  0  0  0  0  0  0  0
  -17.1960   29.5025   -4.0183 C   0  0  0  0  0  0  0  0  0  0  0  0
  -15.8144   29.4313   -4.2240 C   0  0  0  0  0  0  0  0  0  0  0  0
  -15.1971   28.2214   -4.5360 C   0  0  0  0  0  0  0  0  0  0  0  0
  1  3  1  0  0  0  0
  1  5  1  0  0  0  0
  1  6  2  0  0  0  0
  2  5  2  0  0  0  0
  2 11  1  0  0  0  0
  2  4  1  0  0  0  0
  6 10  1  0  0  0  0
  7  8  2  0  0  0  0
  7 12  1  0  0  0  0
  8  9  1  0  0  0  0
  9 10  2  0  0  0  0
 10 11  1  0  0  0  0
 11 12  2  0  0  0  0
M  END
>  <CHROM.1>
-16.36526731,29.87508307,-4.05316974,1.59026642,0.12975308,0.19105334

>  <Name>
ligand

>  <RI>
0

>  <Rbt.Current_Directory>
/home/itssahil/PROJECTS/Mol_Feturizer/New_Systems/rnas/4LX5

>  <Rbt.Executable>
rbdock ($Id: //depot/dev/client3/rdock/2013.1/src/exe/rbdock.cxx#4 $)

>  <Rbt.Library>
libRbt.so (2013.1, Build901 2013/11/27)

>  <Rbt.Parameter_File>
/export/apps/rDock/src/rDock_2013.1_src/data/scripts/dock_solv.prm

>  <Rbt.Receptor>
prm/blind_docking_60.prm

>  <SCORE>
-10.1607

>  <SCORE.INTER>
-10.1607

>  <SCORE.INTER.CONST>
1

>  <SCORE.INTER.POLAR>
0

>  <SCORE.INTER.ROT>
0

>  <SCORE.INTER.SOLV>
8.71621

>  <SCORE.INTER.VDW>
-13.2792

>  <SCORE.INTER.norm>
-0.846728

>  <SCORE.INTRA>
0

>  <SCORE.INTRA.DIHEDRAL>
0

>  <SCORE.INTRA.DIHEDRAL.0>
0

>  <SCORE.INTRA.POLAR>
0

>  <SCORE.INTRA.POLAR.0>
0

>  <SCORE.INTRA.REPUL>
0

>  <SCORE.INTRA.REPUL.0>
0

>  <SCORE.INTRA.SOLV>
0

>  <SCORE.INTRA.SOLV.lig_0>
-48.1583

>  <SCORE.INTRA.VDW>
0

>  <SCORE.INTRA.VDW.0>
0

>  <SCORE.INTRA.norm>
0

>  <SCORE.RESTR>
0

>  <SCORE.RESTR.CAVITY>
0

>  <SCORE.RESTR.norm>
0

>  <SCORE.SYSTEM>
0

>  <SCORE.SYSTEM.CONST>
0

>  <SCORE.SYSTEM.DIHEDRAL>
0

>  <SCORE.SYSTEM.SOLV>
0

>  <SCORE.SYSTEM.norm>
0

>  <SCORE.heavy>
12

>  <SCORE.norm>
-0.846728

>  <RMSD>
26.991

$$$$
ligand
 OpenBabel11021811503D
libRbt.so/2013.1/901 2013/11/27
 12 13  0  0  0  0  0  0  0  0999 V2000
  -16.9776   31.8210   -3.5914 C   0  0  0  0  0  0  0  0  0  0  0  0
  -15.0514   30.6099   -4.0994 C   0  0  0  0  0  0  0  0  0  0  0  0
  -17.5478   32.9879   -3.3049 N   0  0  0  0  0  0  0  0  0  0  0  0
  -13.7309   30.5095   -4.2874 N   0  0  0  0  0  0  0  0  0  0  0  0
  -15.6414   31.7708   -3.7849 N   0  0  0  0  0  0  0  0  0  0  0  0
  -17.7433   30.7138   -3.7111 N   0  0  0  0  0  0  0  0  0  0  0  0
  -16.0010   27.0780   -4.6386 N   0  0  0  0  0  0  0  0  0  0  0  0
  -17.3867   27.1698   -4.4360 C   0  0  0  0  0  0  0  0  0  0  0  0
  -17.9727   28.4151   -4.1099 N   0  0  0  0  0  0  0  0  0  0  0  0
  -17.1916   29.5130   -4.0171 C   0  0  0  0  0  0  0  0  0  0  0  0
  -15.8108   29.4404   -4.2273 C   0  0  0  0  0  0  0  0  0  0  0  0
  -15.1953   28.2295   -4.5392 C   0  0  0  0  0  0  0  0  0  0  0  0
  1  3  1  0  0  0  0
  1  5  1  0  0  0  0
  1  6  2  0  0  0  0
  2  5  2  0  0  0  0
  2 11  1  0  0  0  0
  2  4  1  0  0  0  0
  6 10  1  0  0  0  0
  7  8  2  0  0  0  0
  7 12  1  0  0  0  0
  8  9  1  0  0  0  0
  9 10  2  0  0  0  0
 10 11  1  0  0  0  0
 11 12  2  0  0  0  0
M  END
>  <CHROM.1>
-16.36075820,29.88488569,-4.05539294,1.58892591,0.13290629,0.18945123

>  <Name>
ligand

>  <RI>
0

>  <Rbt.Current_Directory>
/home/itssahil/PROJECTS/Mol_Feturizer/New_Systems/rnas/4LX5

>  <Rbt.Executable>
rbdock ($Id: //depot/dev/client3/rdock/2013.1/src/exe/rbdock.cxx#4 $)

>  <Rbt.Library>
libRbt.so (2013.1, Build901 2013/11/27)

>  <Rbt.Parameter_File>
/export/apps/rDock/src/rDock_2013.1_src/data/scripts/dock_solv.prm

>  <Rbt.Receptor>
prm/blind_docking_80.prm

>  <SCORE>
-10.1718

>  <SCORE.INTER>
-10.1718

>  <SCORE.INTER.CONST>
1

>  <SCORE.INTER.POLAR>
0

>  <SCORE.INTER.ROT>
0

>  <SCORE.INTER.SOLV>
8.70523

>  <SCORE.INTER.VDW>
-13.283

>  <SCORE.INTER.norm>
-0.847654

>  <SCORE.INTRA>
0

>  <SCORE.INTRA.DIHEDRAL>
0

>  <SCORE.INTRA.DIHEDRAL.0>
0

>  <SCORE.INTRA.POLAR>
0

>  <SCORE.INTRA.POLAR.0>
0

>  <SCORE.INTRA.REPUL>
0

>  <SCORE.INTRA.REPUL.0>
0

>  <SCORE.INTRA.SOLV>
0

>  <SCORE.INTRA.SOLV.lig_0>
-48.1583

>  <SCORE.INTRA.VDW>
0

>  <SCORE.INTRA.VDW.0>
0

>  <SCORE.INTRA.norm>
0

>  <SCORE.RESTR>
0

>  <SCORE.RESTR.CAVITY>
0

>  <SCORE.RESTR.norm>
0

>  <SCORE.SYSTEM>
0

>  <SCORE.SYSTEM.CONST>
0

>  <SCORE.SYSTEM.DIHEDRAL>
0

>  <SCORE.SYSTEM.SOLV>
0

>  <SCORE.SYSTEM.norm>
0

>  <SCORE.heavy>
12

>  <SCORE.norm>
-0.847654

>  <RMSD>
26.992

$$$$
ligand
 OpenBabel11021811503D
libRbt.so/2013.1/901 2013/11/27
 12 13  0  0  0  0  0  0  0  0999 V2000
  -17.0217   31.7935   -3.5905 C   0  0  0  0  0  0  0  0  0  0  0  0
  -15.0768   30.5857   -4.0302 C   0  0  0  0  0  0  0  0  0  0  0  0
  -17.6028   32.9583   -3.3172 N   0  0  0  0  0  0  0  0  0  0  0  0
  -13.7498   30.4860   -4.1652 N   0  0  0  0  0  0  0  0  0  0  0  0
  -15.6788   31.7442   -3.7299 N   0  0  0  0  0  0  0  0  0  0  0  0
  -17.7823   30.6879   -3.7508 N   0  0  0  0  0  0  0  0  0  0  0  0
  -16.0048   27.0591   -4.6382 N   0  0  0  0  0  0  0  0  0  0  0  0
  -17.3975   27.1501   -4.4914 C   0  0  0  0  0  0  0  0  0  0  0  0
  -17.9959   28.3929   -4.1786 N   0  0  0  0  0  0  0  0  0  0  0  0
  -17.2189   29.4894   -4.0445 C   0  0  0  0  0  0  0  0  0  0  0  0
  -15.8307   29.4178   -4.1990 C   0  0  0  0  0  0  0  0  0  0  0  0
  -15.2035   28.2093   -4.4962 C   0  0  0  0  0  0  0  0  0  0  0  0
  1  3  1  0  0  0  0
  1  5  1  0  0  0  0
  1  6  2  0  0  0  0
  2  5  2  0  0  0  0
  2 11  1  0  0  0  0
  2  4  1  0  0  0  0
  6 10  1  0  0  0  0
  7  8  2  0  0  0  0
  7 12  1  0  0  0  0
  8  9  1  0  0  0  0
  9 10  2  0  0  0  0
 10 11  1  0  0  0  0
 11 12  2  0  0  0  0
M  END
>  <CHROM.1>
-16.38710667,29.86111485,-4.04578301,1.59632896,0.09288650,0.19730363

>  <Name>
ligand

>  <RI>
0

>  <Rbt.Current_Directory>
/home/itssahil/PROJECTS/Mol_Feturizer/New_Systems/rnas/4LX5

>  <Rbt.Executable>
rbdock ($Id: //depot/dev/client3/rdock/2013.1/src/exe/rbdock.cxx#4 $)

>  <Rbt.Library>
libRbt.so (2013.1, Build901 2013/11/27)

>  <Rbt.Parameter_File>
/export/apps/rDock/src/rDock_2013.1_src/data/scripts/dock_solv.prm

>  <Rbt.Receptor>
prm/blind_docking_40.prm

>  <SCORE>
-10.1913

>  <SCORE.INTER>
-10.1913

>  <SCORE.INTER.CONST>
1

>  <SCORE.INTER.POLAR>
0

>  <SCORE.INTER.ROT>
0

>  <SCORE.INTER.SOLV>
8.56764

>  <SCORE.INTER.VDW>
-13.2501

>  <SCORE.INTER.norm>
-0.849278

>  <SCORE.INTRA>
0

>  <SCORE.INTRA.DIHEDRAL>
0

>  <SCORE.INTRA.DIHEDRAL.0>
0

>  <SCORE.INTRA.POLAR>
0

>  <SCORE.INTRA.POLAR.0>
0

>  <SCORE.INTRA.REPUL>
0

>  <SCORE.INTRA.REPUL.0>
0

>  <SCORE.INTRA.SOLV>
0

>  <SCORE.INTRA.SOLV.lig_0>
-48.1583

>  <SCORE.INTRA.VDW>
0

>  <SCORE.INTRA.VDW.0>
0

>  <SCORE.INTRA.norm>
0

>  <SCORE.RESTR>
0

>  <SCORE.RESTR.CAVITY>
0

>  <SCORE.RESTR.norm>
0

>  <SCORE.SYSTEM>
0

>  <SCORE.SYSTEM.CONST>
0

>  <SCORE.SYSTEM.DIHEDRAL>
0

>  <SCORE.SYSTEM.SOLV>
0

>  <SCORE.SYSTEM.norm>
0

>  <SCORE.heavy>
12

>  <SCORE.norm>
-0.849278

>  <RMSD>
27.001

$$$$
ligand
 OpenBabel11021811503D
libRbt.so/2013.1/901 2013/11/27
 12 13  0  0  0  0  0  0  0  0999 V2000
  -16.9966   31.8103   -3.6168 C   0  0  0  0  0  0  0  0  0  0  0  0
  -15.0702   30.6060   -4.1394 C   0  0  0  0  0  0  0  0  0  0  0  0
  -17.5698   32.9763   -3.3323 N   0  0  0  0  0  0  0  0  0  0  0  0
  -13.7516   30.5114   -4.3434 N   0  0  0  0  0  0  0  0  0  0  0  0
  -15.6628   31.7661   -3.8268 N   0  0  0  0  0  0  0  0  0  0  0  0
  -17.7576   30.6979   -3.7179 N   0  0  0  0  0  0  0  0  0  0  0  0
  -16.0065   27.0646   -4.6384 N   0  0  0  0  0  0  0  0  0  0  0  0
  -17.3900   27.1503   -4.4190 C   0  0  0  0  0  0  0  0  0  0  0  0
  -17.9788   28.3949   -4.0954 N   0  0  0  0  0  0  0  0  0  0  0  0
  -17.2029   29.4978   -4.0212 C   0  0  0  0  0  0  0  0  0  0  0  0
  -15.8245   29.4313   -4.2484 C   0  0  0  0  0  0  0  0  0  0  0  0
  -15.2062   28.2214   -4.5585 C   0  0  0  0  0  0  0  0  0  0  0  0
  1  3  1  0  0  0  0
  1  5  1  0  0  0  0
  1  6  2  0  0  0  0
  2  5  2  0  0  0  0
  2 11  1  0  0  0  0
  2  4  1  0  0  0  0
  6 10  1  0  0  0  0
  7  8  2  0  0  0  0
  7 12  1  0  0  0  0
  8  9  1  0  0  0  0
  9 10  2  0  0  0  0
 10 11  1  0  0  0  0
 11 12  2  0  0  0  0
M  END
>  <CHROM.1>
-16.37474848,29.87402543,-4.07306665,1.59216202,0.14639644,0.18099888

>  <Name>
ligand

>  <RI>
0

>  <Rbt.Current_Directory>
/home/itssahil/PROJECTS/Mol_Feturizer/New_Systems/rnas/4LX5

>  <Rbt.Executable>
rbdock ($Id: //depot/dev/client3/rdock/2013.1/src/exe/rbdock.cxx#4 $)

>  <Rbt.Library>
libRbt.so (2013.1, Build901 2013/11/27)

>  <Rbt.Parameter_File>
/export/apps/rDock/src/rDock_2013.1_src/data/scripts/dock_solv.prm

>  <Rbt.Receptor>
prm/blind_docking_80.prm

>  <SCORE>
-10.1934

>  <SCORE.INTER>
-10.1934

>  <SCORE.INTER.CONST>
1

>  <SCORE.INTER.POLAR>
0

>  <SCORE.INTER.ROT>
0

>  <SCORE.INTER.SOLV>
8.81742

>  <SCORE.INTER.VDW>
-13.3347

>  <SCORE.INTER.norm>
-0.84945

>  <SCORE.INTRA>
0

>  <SCORE.INTRA.DIHEDRAL>
0

>  <SCORE.INTRA.DIHEDRAL.0>
0

>  <SCORE.INTRA.POLAR>
0

>  <SCORE.INTRA.POLAR.0>
0

>  <SCORE.INTRA.REPUL>
0

>  <SCORE.INTRA.REPUL.0>
0

>  <SCORE.INTRA.SOLV>
0

>  <SCORE.INTRA.SOLV.lig_0>
-48.1583

>  <SCORE.INTRA.VDW>
0

>  <SCORE.INTRA.VDW.0>
0

>  <SCORE.INTRA.norm>
0

>  <SCORE.RESTR>
0

>  <SCORE.RESTR.CAVITY>
0

>  <SCORE.RESTR.norm>
0

>  <SCORE.SYSTEM>
0

>  <SCORE.SYSTEM.CONST>
0

>  <SCORE.SYSTEM.DIHEDRAL>
0

>  <SCORE.SYSTEM.SOLV>
0

>  <SCORE.SYSTEM.norm>
0

>  <SCORE.heavy>
12

>  <SCORE.norm>
-0.84945

>  <RMSD>
27.003

$$$$
ligand
 OpenBabel11021811503D
libRbt.so/2013.1/901 2013/11/27
 12 13  0  0  0  0  0  0  0  0999 V2000
  -16.9810   31.8174   -3.5800 C   0  0  0  0  0  0  0  0  0  0  0  0
  -15.0662   30.6134   -4.1443 C   0  0  0  0  0  0  0  0  0  0  0  0
  -17.5466   32.9821   -3.2755 N   0  0  0  0  0  0  0  0  0  0  0  0
  -13.7513   30.5175   -4.3700 N   0  0  0  0  0  0  0  0  0  0  0  0
  -15.6508   31.7719   -3.8115 N   0  0  0  0  0  0  0  0  0  0  0  0
  -17.7463   30.7079   -3.6794 N   0  0  0  0  0  0  0  0  0  0  0  0
  -16.0195   27.0791   -4.6615 N   0  0  0  0  0  0  0  0  0  0  0  0
  -17.3991   27.1661   -4.4194 C   0  0  0  0  0  0  0  0  0  0  0  0
  -17.9796   28.4091   -4.0749 N   0  0  0  0  0  0  0  0  0  0  0  0
  -17.1997   29.5093   -4.0027 C   0  0  0  0  0  0  0  0  0  0  0  0
  -15.8252   29.4415   -4.2523 C   0  0  0  0  0  0  0  0  0  0  0  0
  -15.2150   28.2331   -4.5834 C   0  0  0  0  0  0  0  0  0  0  0  0
  1  3  1  0  0  0  0
  1  5  1  0  0  0  0
  1  6  2  0  0  0  0
  2  5  2  0  0  0  0
  2 11  1  0  0  0  0
  2  4  1  0  0  0  0
  6 10  1  0  0  0  0
  7  8  2  0  0  0  0
  7 12  1  0  0  0  0
  8  9  1  0  0  0  0
  9 10  2  0  0  0  0
 10 11  1  0  0  0  0
 11 12  2  0  0  0  0
M  END
>  <CHROM.1>
-16.37147726,29.88399413,-4.06414453,1.58668890,0.16149078,0.19121069

>  <Name>
ligand

>  <RI>
0

>  <Rbt.Current_Directory>
/home/itssahil/PROJECTS/Mol_Feturizer/New_Systems/rnas/4LX5

>  <Rbt.Executable>
rbdock ($Id: //depot/dev/client3/rdock/2013.1/src/exe/rbdock.cxx#4 $)

>  <Rbt.Library>
libRbt.so (2013.1, Build901 2013/11/27)

>  <Rbt.Parameter_File>
/export/apps/rDock/src/rDock_2013.1_src/data/scripts/dock_solv.prm

>  <Rbt.Receptor>
prm/blind_docking_80.prm

>  <SCORE>
-10.1688

>  <SCORE.INTER>
-10.1688

>  <SCORE.INTER.CONST>
1

>  <SCORE.INTER.POLAR>
0

>  <SCORE.INTER.ROT>
0

>  <SCORE.INTER.SOLV>
8.94746

>  <SCORE.INTER.VDW>
-13.3617

>  <SCORE.INTER.norm>
-0.847398

>  <SCORE.INTRA>
0

>  <SCORE.INTRA.DIHEDRAL>
0

>  <SCORE.INTRA.DIHEDRAL.0>
0

>  <SCORE.INTRA.POLAR>
0

>  <SCORE.INTRA.POLAR.0>
0

>  <SCORE.INTRA.REPUL>
0

>  <SCORE.INTRA.REPUL.0>
0

>  <SCORE.INTRA.SOLV>
0

>  <SCORE.INTRA.SOLV.lig_0>
-48.1583

>  <SCORE.INTRA.VDW>
0

>  <SCORE.INTRA.VDW.0>
0

>  <SCORE.INTRA.norm>
0

>  <SCORE.RESTR>
0

>  <SCORE.RESTR.CAVITY>
0

>  <SCORE.RESTR.norm>
0

>  <SCORE.SYSTEM>
0

>  <SCORE.SYSTEM.CONST>
0

>  <SCORE.SYSTEM.DIHEDRAL>
0

>  <SCORE.SYSTEM.SOLV>
0

>  <SCORE.SYSTEM.norm>
0

>  <SCORE.heavy>
12

>  <SCORE.norm>
-0.847398

>  <RMSD>
27.003

$$$$
ligand
 OpenBabel11021811503D
libRbt.so/2013.1/901 2013/11/27
 12 13  0  0  0  0  0  0  0  0999 V2000
  -16.9827   31.8190   -3.6128 C   0  0  0  0  0  0  0  0  0  0  0  0
  -15.0621   30.6020   -4.1276 C   0  0  0  0  0  0  0  0  0  0  0  0
  -17.5487   32.9880   -3.3265 N   0  0  0  0  0  0  0  0  0  0  0  0
  -13.7429   30.4980   -4.3224 N   0  0  0  0  0  0  0  0  0  0  0  0
  -15.6478   31.7651   -3.8133 N   0  0  0  0  0  0  0  0  0  0  0  0
  -17.7517   30.7131   -3.7250 N   0  0  0  0  0  0  0  0  0  0  0  0
  -16.0227   27.0707   -4.6514 N   0  0  0  0  0  0  0  0  0  0  0  0
  -17.4071   27.1663   -4.4416 C   0  0  0  0  0  0  0  0  0  0  0  0
  -17.9884   28.4139   -4.1159 N   0  0  0  0  0  0  0  0  0  0  0  0
  -17.2043   29.5102   -4.0305 C   0  0  0  0  0  0  0  0  0  0  0  0
  -15.8248   29.4339   -4.2480 C   0  0  0  0  0  0  0  0  0  0  0  0
  -15.2139   28.2207   -4.5597 C   0  0  0  0  0  0  0  0  0  0  0  0
  1  3  1  0  0  0  0
  1  5  1  0  0  0  0
  1  6  2  0  0  0  0
  2  5  2  0  0  0  0
  2 11  1  0  0  0  0
  2  4  1  0  0  0  0
  6 10  1  0  0  0  0
  7  8  2  0  0  0  0
  7 12  1  0  0  0  0
  8  9  1  0  0  0  0
  9 10  2  0  0  0  0
 10 11  1  0  0  0  0
 11 12  2  0  0  0  0
M  END
>  <CHROM.1>
-16.37286175,29.88009642,-4.07440987,1.58563149,0.13779960,0.18699876

>  <Name>
ligand

>  <RI>
0

>  <Rbt.Current_Directory>
/home/itssahil/PROJECTS/Mol_Feturizer/New_Systems/rnas/4LX5

>  <Rbt.Executable>
rbdock ($Id: //depot/dev/client3/rdock/2013.1/src/exe/rbdock.cxx#4 $)

>  <Rbt.Library>
libRbt.so (2013.1, Build901 2013/11/27)

>  <Rbt.Parameter_File>
/export/apps/rDock/src/rDock_2013.1_src/data/scripts/dock_solv.prm

>  <Rbt.Receptor>
prm/blind_docking_80.prm

>  <SCORE>
-10.2034

>  <SCORE.INTER>
-10.2034

>  <SCORE.INTER.CONST>
1

>  <SCORE.INTER.POLAR>
0

>  <SCORE.INTER.ROT>
0

>  <SCORE.INTER.SOLV>
8.70133

>  <SCORE.INTER.VDW>
-13.3027

>  <SCORE.INTER.norm>
-0.850282

>  <SCORE.INTRA>
0

>  <SCORE.INTRA.DIHEDRAL>
0

>  <SCORE.INTRA.DIHEDRAL.0>
0

>  <SCORE.INTRA.POLAR>
0

>  <SCORE.INTRA.POLAR.0>
0

>  <SCORE.INTRA.REPUL>
0

>  <SCORE.INTRA.REPUL.0>
0

>  <SCORE.INTRA.SOLV>
0

>  <SCORE.INTRA.SOLV.lig_0>
-48.1583

>  <SCORE.INTRA.VDW>
0

>  <SCORE.INTRA.VDW.0>
0

>  <SCORE.INTRA.norm>
0

>  <SCORE.RESTR>
0

>  <SCORE.RESTR.CAVITY>
0

>  <SCORE.RESTR.norm>
0

>  <SCORE.SYSTEM>
0

>  <SCORE.SYSTEM.CONST>
0

>  <SCORE.SYSTEM.DIHEDRAL>
0

>  <SCORE.SYSTEM.SOLV>
0

>  <SCORE.SYSTEM.norm>
0

>  <SCORE.heavy>
12

>  <SCORE.norm>
-0.850282

>  <RMSD>
27.005

$$$$
ligand
 OpenBabel11021811503D
libRbt.so/2013.1/901 2013/11/27
 12 13  0  0  0  0  0  0  0  0999 V2000
  -17.0414   31.7807   -3.5914 C   0  0  0  0  0  0  0  0  0  0  0  0
  -15.0927   30.5796   -4.0329 C   0  0  0  0  0  0  0  0  0  0  0  0
  -17.6256   32.9424   -3.3120 N   0  0  0  0  0  0  0  0  0  0  0  0
  -13.7651   30.4834   -4.1641 N   0  0  0  0  0  0  0  0  0  0  0  0
  -15.6979   31.7349   -3.7266 N   0  0  0  0  0  0  0  0  0  0  0  0
  -17.7993   30.6747   -3.7619 N   0  0  0  0  0  0  0  0  0  0  0  0
  -16.0118   27.0556   -4.6685 N   0  0  0  0  0  0  0  0  0  0  0  0
  -17.4052   27.1429   -4.5257 C   0  0  0  0  0  0  0  0  0  0  0  0
  -18.0070   28.3824   -4.2063 N   0  0  0  0  0  0  0  0  0  0  0  0
  -17.2326   29.4794   -4.0620 C   0  0  0  0  0  0  0  0  0  0  0  0
  -15.8438   29.4115   -4.2123 C   0  0  0  0  0  0  0  0  0  0  0  0
  -15.2132   28.2063   -4.5158 C   0  0  0  0  0  0  0  0  0  0  0  0
  1  3  1  0  0  0  0
  1  5  1  0  0  0  0
  1  6  2  0  0  0  0
  2  5  2  0  0  0  0
  2 11  1  0  0  0  0
  2  4  1  0  0  0  0
  6 10  1  0  0  0  0
  7  8  2  0  0  0  0
  7 12  1  0  0  0  0
  8  9  1  0  0  0  0
  9 10  2  0  0  0  0
 10 11  1  0  0  0  0
 11 12  2  0  0  0  0
M  END
>  <CHROM.1>
-16.40152591,29.85270625,-4.05791715,1.59888135,0.08998015,0.20400077

>  <Name>
ligand

>  <RI>
0

>  <Rbt.Current_Directory>
/home/itssahil/PROJECTS/Mol_Feturizer/New_Systems/rnas/4LX5

>  <Rbt.Executable>
rbdock ($Id: //depot/dev/client3/rdock/2013.1/src/exe/rbdock.cxx#4 $)

>  <Rbt.Library>
libRbt.so (2013.1, Build901 2013/11/27)

>  <Rbt.Parameter_File>
/export/apps/rDock/src/rDock_2013.1_src/data/scripts/dock_solv.prm

>  <Rbt.Receptor>
prm/blind_docking_40.prm

>  <SCORE>
-10.1566

>  <SCORE.INTER>
-10.1566

>  <SCORE.INTER.CONST>
1

>  <SCORE.INTER.POLAR>
0

>  <SCORE.INTER.ROT>
0

>  <SCORE.INTER.SOLV>
8.63873

>  <SCORE.INTER.VDW>
-13.2506

>  <SCORE.INTER.norm>
-0.846381

>  <SCORE.INTRA>
0

>  <SCORE.INTRA.DIHEDRAL>
0

>  <SCORE.INTRA.DIHEDRAL.0>
0

>  <SCORE.INTRA.POLAR>
0

>  <SCORE.INTRA.POLAR.0>
0

>  <SCORE.INTRA.REPUL>
0

>  <SCORE.INTRA.REPUL.0>
0

>  <SCORE.INTRA.SOLV>
0

>  <SCORE.INTRA.SOLV.lig_0>
-48.1583

>  <SCORE.INTRA.VDW>
0

>  <SCORE.INTRA.VDW.0>
0

>  <SCORE.INTRA.norm>
0

>  <SCORE.RESTR>
0

>  <SCORE.RESTR.CAVITY>
0

>  <SCORE.RESTR.norm>
0

>  <SCORE.SYSTEM>
0

>  <SCORE.SYSTEM.CONST>
0

>  <SCORE.SYSTEM.DIHEDRAL>
0

>  <SCORE.SYSTEM.SOLV>
0

>  <SCORE.SYSTEM.norm>
0

>  <SCORE.heavy>
12

>  <SCORE.norm>
-0.846381

>  <RMSD>
27.014

$$$$
ligand
 OpenBabel11021811503D
libRbt.so/2013.1/901 2013/11/27
 12 13  0  0  0  0  0  0  0  0999 V2000
  -13.9251   30.7545   -3.4785 C   0  0  0  0  0  0  0  0  0  0  0  0
  -15.6739   29.6271   -4.5299 C   0  0  0  0  0  0  0  0  0  0  0  0
  -12.6546   30.7741   -3.0857 N   0  0  0  0  0  0  0  0  0  0  0  0
  -16.1953   28.5583   -5.1421 N   0  0  0  0  0  0  0  0  0  0  0  0
  -14.4041   29.6570   -4.1039 N   0  0  0  0  0  0  0  0  0  0  0  0
  -14.7061   31.8379   -3.2714 N   0  0  0  0  0  0  0  0  0  0  0  0
  -18.6513   31.8185   -4.5163 N   0  0  0  0  0  0  0  0  0  0  0  0
  -18.1172   32.9429   -3.8682 C   0  0  0  0  0  0  0  0  0  0  0  0
  -16.7699   32.9371   -3.4374 N   0  0  0  0  0  0  0  0  0  0  0  0
  -16.0012   31.8523   -3.6743 C   0  0  0  0  0  0  0  0  0  0  0  0
  -16.5151   30.7284   -4.3292 C   0  0  0  0  0  0  0  0  0  0  0  0
  -17.8405   30.6919   -4.7584 C   0  0  0  0  0  0  0  0  0  0  0  0
  1  3  1  0  0  0  0
  1  5  1  0  0  0  0
  1  6  2  0  0  0  0
  2  5  2  0  0  0  0
  2 11  1  0  0  0  0
  2  4  1  0  0  0  0
  6 10  1  0  0  0  0
  7  8  2  0  0  0  0
  7 12  1  0  0  0  0
  8  9  1  0  0  0  0
  9 10  2  0  0  0  0
 10 11  1  0  0  0  0
 11 12  2  0  0  0  0
M  END
>  <CHROM.1>
-15.92452558,31.00851441,-4.00935682,-0.29692322,-0.28196786,0.40632243

>  <Name>
ligand

>  <RI>
0

>  <Rbt.Current_Directory>
/home/itssahil/PROJECTS/Mol_Feturizer/New_Systems/rnas/4LX5

>  <Rbt.Executable>
rbdock ($Id: //depot/dev/client3/rdock/2013.1/src/exe/rbdock.cxx#4 $)

>  <Rbt.Library>
libRbt.so (2013.1, Build901 2013/11/27)

>  <Rbt.Parameter_File>
/export/apps/rDock/src/rDock_2013.1_src/data/scripts/dock_solv.prm

>  <Rbt.Receptor>
prm/blind_docking_40.prm

>  <SCORE>
-6.60452

>  <SCORE.INTER>
-6.60452

>  <SCORE.INTER.CONST>
1

>  <SCORE.INTER.POLAR>
0

>  <SCORE.INTER.ROT>
0

>  <SCORE.INTER.SOLV>
3.42342

>  <SCORE.INTER.VDW>
-9.14415

>  <SCORE.INTER.norm>
-0.550377

>  <SCORE.INTRA>
0

>  <SCORE.INTRA.DIHEDRAL>
0

>  <SCORE.INTRA.DIHEDRAL.0>
0

>  <SCORE.INTRA.POLAR>
0

>  <SCORE.INTRA.POLAR.0>
0

>  <SCORE.INTRA.REPUL>
0

>  <SCORE.INTRA.REPUL.0>
0

>  <SCORE.INTRA.SOLV>
0

>  <SCORE.INTRA.SOLV.lig_0>
-48.1583

>  <SCORE.INTRA.VDW>
0

>  <SCORE.INTRA.VDW.0>
0

>  <SCORE.INTRA.norm>
0

>  <SCORE.RESTR>
0

>  <SCORE.RESTR.CAVITY>
0

>  <SCORE.RESTR.norm>
0

>  <SCORE.SYSTEM>
0

>  <SCORE.SYSTEM.CONST>
0

>  <SCORE.SYSTEM.DIHEDRAL>
0

>  <SCORE.SYSTEM.SOLV>
0

>  <SCORE.SYSTEM.norm>
0

>  <SCORE.heavy>
12

>  <SCORE.norm>
-0.550377

>  <RMSD>
27.064

$$$$
ligand
 OpenBabel11021811503D
libRbt.so/2013.1/901 2013/11/27
 12 13  0  0  0  0  0  0  0  0999 V2000
  -13.8644   30.7586   -3.6468 C   0  0  0  0  0  0  0  0  0  0  0  0
  -15.6719   29.7411   -4.7110 C   0  0  0  0  0  0  0  0  0  0  0  0
  -12.5849   30.7195   -3.2858 N   0  0  0  0  0  0  0  0  0  0  0  0
  -16.2407   28.7222   -5.3647 N   0  0  0  0  0  0  0  0  0  0  0  0
  -14.3920   29.7105   -4.3163 N   0  0  0  0  0  0  0  0  0  0  0  0
  -14.6062   31.8524   -3.3638 N   0  0  0  0  0  0  0  0  0  0  0  0
  -18.5785   32.0166   -4.5078 N   0  0  0  0  0  0  0  0  0  0  0  0
  -17.9944   33.0887   -3.8156 C   0  0  0  0  0  0  0  0  0  0  0  0
  -16.6381   33.0200   -3.4200 N   0  0  0  0  0  0  0  0  0  0  0  0
  -15.9094   31.9267   -3.7325 C   0  0  0  0  0  0  0  0  0  0  0  0
  -16.4735   30.8549   -4.4318 C   0  0  0  0  0  0  0  0  0  0  0  0
  -17.8092   30.8807   -4.8288 C   0  0  0  0  0  0  0  0  0  0  0  0
  1  3  1  0  0  0  0
  1  5  1  0  0  0  0
  1  6  2  0  0  0  0
  2  5  2  0  0  0  0
  2 11  1  0  0  0  0
  2  4  1  0  0  0  0
  6 10  1  0  0  0  0
  7  8  2  0  0  0  0
  7 12  1  0  0  0  0
  8  9  1  0  0  0  0
  9 10  2  0  0  0  0
 10 11  1  0  0  0  0
 11 12  2  0  0  0  0
M  END
>  <CHROM.1>
-15.86698902,31.09992152,-4.11292500,-0.33635215,-0.27229625,0.44810233

>  <Name>
ligand

>  <RI>
0

>  <Rbt.Current_Directory>
/home/itssahil/PROJECTS/Mol_Feturizer/New_Systems/rnas/4LX5

>  <Rbt.Executable>
rbdock ($Id: //depot/dev/client3/rdock/2013.1/src/exe/rbdock.cxx#4 $)

>  <Rbt.Library>
libRbt.so (2013.1, Build901 2013/11/27)

>  <Rbt.Parameter_File>
/export/apps/rDock/src/rDock_2013.1_src/data/scripts/dock_solv.prm

>  <Rbt.Receptor>
prm/blind_docking_80.prm

>  <SCORE>
-6.53767

>  <SCORE.INTER>
-6.53767

>  <SCORE.INTER.CONST>
1

>  <SCORE.INTER.POLAR>
0

>  <SCORE.INTER.ROT>
0

>  <SCORE.INTER.SOLV>
3.17478

>  <SCORE.INTER.VDW>
-9.0167

>  <SCORE.INTER.norm>
-0.544805

>  <SCORE.INTRA>
0

>  <SCORE.INTRA.DIHEDRAL>
0

>  <SCORE.INTRA.DIHEDRAL.0>
0

>  <SCORE.INTRA.POLAR>
0

>  <SCORE.INTRA.POLAR.0>
0

>  <SCORE.INTRA.REPUL>
0

>  <SCORE.INTRA.REPUL.0>
0

>  <SCORE.INTRA.SOLV>
0

>  <SCORE.INTRA.SOLV.lig_0>
-48.1583

>  <SCORE.INTRA.VDW>
0

>  <SCORE.INTRA.VDW.0>
0

>  <SCORE.INTRA.norm>
0

>  <SCORE.RESTR>
0

>  <SCORE.RESTR.CAVITY>
0

>  <SCORE.RESTR.norm>
0

>  <SCORE.SYSTEM>
0

>  <SCORE.SYSTEM.CONST>
0

>  <SCORE.SYSTEM.DIHEDRAL>
0

>  <SCORE.SYSTEM.SOLV>
0

>  <SCORE.SYSTEM.norm>
0

>  <SCORE.heavy>
12

>  <SCORE.norm>
-0.544805

>  <RMSD>
27.087

$$$$
ligand
 OpenBabel11021811503D
libRbt.so/2013.1/901 2013/11/27
 12 13  0  0  0  0  0  0  0  0999 V2000
  -16.7184   28.3117   -4.6395 C   0  0  0  0  0  0  0  0  0  0  0  0
  -15.0076   29.8510   -4.2672 C   0  0  0  0  0  0  0  0  0  0  0  0
  -17.0892   27.0677   -4.9291 N   0  0  0  0  0  0  0  0  0  0  0  0
  -13.7165   30.1958   -4.2108 N   0  0  0  0  0  0  0  0  0  0  0  0
  -15.4020   28.6100   -4.5821 N   0  0  0  0  0  0  0  0  0  0  0  0
  -17.6591   29.2472   -4.3817 N   0  0  0  0  0  0  0  0  0  0  0  0
  -16.5336   33.1156   -3.4417 N   0  0  0  0  0  0  0  0  0  0  0  0
  -17.8916   32.7672   -3.5054 C   0  0  0  0  0  0  0  0  0  0  0  0
  -18.2675   31.4445   -3.8369 N   0  0  0  0  0  0  0  0  0  0  0  0
  -17.3106   30.5203   -4.0692 C   0  0  0  0  0  0  0  0  0  0  0  0
  -15.9529   30.8486   -3.9984 C   0  0  0  0  0  0  0  0  0  0  0  0
  -15.5433   32.1435   -3.6859 C   0  0  0  0  0  0  0  0  0  0  0  0
  1  3  1  0  0  0  0
  1  5  1  0  0  0  0
  1  6  2  0  0  0  0
  2  5  2  0  0  0  0
  2 11  1  0  0  0  0
  2  4  1  0  0  0  0
  6 10  1  0  0  0  0
  7  8  2  0  0  0  0
  7 12  1  0  0  0  0
  8  9  1  0  0  0  0
  9 10  2  0  0  0  0
 10 11  1  0  0  0  0
 11 12  2  0  0  0  0
M  END
>  <CHROM.1>
-16.42591093,30.31314661,-4.13676195,1.42591056,-0.01380733,-2.89764083

>  <Name>
ligand

>  <RI>
0

>  <Rbt.Current_Directory>
/home/itssahil/PROJECTS/Mol_Feturizer/New_Systems/rnas/4LX5

>  <Rbt.Executable>
rbdock ($Id: //depot/dev/client3/rdock/2013.1/src/exe/rbdock.cxx#4 $)

>  <Rbt.Library>
libRbt.so (2013.1, Build901 2013/11/27)

>  <Rbt.Parameter_File>
/export/apps/rDock/src/rDock_2013.1_src/data/scripts/dock_solv.prm

>  <Rbt.Receptor>
prm/blind_docking_100.prm

>  <SCORE>
-6.6798

>  <SCORE.INTER>
-6.6798

>  <SCORE.INTER.CONST>
1

>  <SCORE.INTER.POLAR>
0

>  <SCORE.INTER.ROT>
0

>  <SCORE.INTER.SOLV>
11.4601

>  <SCORE.INTER.VDW>
-11.8732

>  <SCORE.INTER.norm>
-0.55665

>  <SCORE.INTRA>
0

>  <SCORE.INTRA.DIHEDRAL>
0

>  <SCORE.INTRA.DIHEDRAL.0>
0

>  <SCORE.INTRA.POLAR>
0

>  <SCORE.INTRA.POLAR.0>
0

>  <SCORE.INTRA.REPUL>
0

>  <SCORE.INTRA.REPUL.0>
0

>  <SCORE.INTRA.SOLV>
0

>  <SCORE.INTRA.SOLV.lig_0>
-48.1583

>  <SCORE.INTRA.VDW>
0

>  <SCORE.INTRA.VDW.0>
0

>  <SCORE.INTRA.norm>
0

>  <SCORE.RESTR>
0

>  <SCORE.RESTR.CAVITY>
0

>  <SCORE.RESTR.norm>
0

>  <SCORE.SYSTEM>
0

>  <SCORE.SYSTEM.CONST>
0

>  <SCORE.SYSTEM.DIHEDRAL>
0

>  <SCORE.SYSTEM.SOLV>
0

>  <SCORE.SYSTEM.norm>
0

>  <SCORE.heavy>
12

>  <SCORE.norm>
-0.55665

>  <RMSD>
27.203

$$$$
ligand
 OpenBabel11021811503D
libRbt.so/2013.1/901 2013/11/27
 12 13  0  0  0  0  0  0  0  0999 V2000
  -13.8419   30.6585   -3.7342 C   0  0  0  0  0  0  0  0  0  0  0  0
  -14.8418   32.5400   -2.7880 C   0  0  0  0  0  0  0  0  0  0  0  0
  -12.7860   29.8555   -3.8298 N   0  0  0  0  0  0  0  0  0  0  0  0
  -14.8229   33.6220   -2.0019 N   0  0  0  0  0  0  0  0  0  0  0  0
  -13.7803   31.7331   -2.9177 N   0  0  0  0  0  0  0  0  0  0  0  0
  -14.9644   30.3734   -4.4308 N   0  0  0  0  0  0  0  0  0  0  0  0
  -18.2767   32.8330   -4.1235 N   0  0  0  0  0  0  0  0  0  0  0  0
  -18.3055   31.7046   -4.9575 C   0  0  0  0  0  0  0  0  0  0  0  0
  -17.1652   30.8745   -5.0638 N   0  0  0  0  0  0  0  0  0  0  0  0
  -16.0617   31.1658   -4.3417 C   0  0  0  0  0  0  0  0  0  0  0  0
  -16.0208   32.2800   -3.4974 C   0  0  0  0  0  0  0  0  0  0  0  0
  -17.1202   33.1277   -3.3746 C   0  0  0  0  0  0  0  0  0  0  0  0
  1  3  1  0  0  0  0
  1  5  1  0  0  0  0
  1  6  2  0  0  0  0
  2  5  2  0  0  0  0
  2 11  1  0  0  0  0
  2  4  1  0  0  0  0
  6 10  1  0  0  0  0
  7  8  2  0  0  0  0
  7 12  1  0  0  0  0
  8  9  1  0  0  0  0
  9 10  2  0  0  0  0
 10 11  1  0  0  0  0
 11 12  2  0  0  0  0
M  END
>  <CHROM.1>
-15.63752476,31.71671549,-3.75299383,0.13066958,0.34688777,-2.50985567

>  <Name>
ligand

>  <RI>
0

>  <Rbt.Current_Directory>
/home/itssahil/PROJECTS/Mol_Feturizer/New_Systems/rnas/4LX5

>  <Rbt.Executable>
rbdock ($Id: //depot/dev/client3/rdock/2013.1/src/exe/rbdock.cxx#4 $)

>  <Rbt.Library>
libRbt.so (2013.1, Build901 2013/11/27)

>  <Rbt.Parameter_File>
/export/apps/rDock/src/rDock_2013.1_src/data/scripts/dock_solv.prm

>  <Rbt.Receptor>
prm/blind_docking_80.prm

>  <SCORE>
-6.08442

>  <SCORE.INTER>
-6.08442

>  <SCORE.INTER.CONST>
1

>  <SCORE.INTER.POLAR>
0

>  <SCORE.INTER.ROT>
0

>  <SCORE.INTER.SOLV>
2.18961

>  <SCORE.INTER.VDW>
-8.38615

>  <SCORE.INTER.norm>
-0.507035

>  <SCORE.INTRA>
0

>  <SCORE.INTRA.DIHEDRAL>
0

>  <SCORE.INTRA.DIHEDRAL.0>
0

>  <SCORE.INTRA.POLAR>
0

>  <SCORE.INTRA.POLAR.0>
0

>  <SCORE.INTRA.REPUL>
0

>  <SCORE.INTRA.REPUL.0>
0

>  <SCORE.INTRA.SOLV>
0

>  <SCORE.INTRA.SOLV.lig_0>
-48.1583

>  <SCORE.INTRA.VDW>
0

>  <SCORE.INTRA.VDW.0>
0

>  <SCORE.INTRA.norm>
0

>  <SCORE.RESTR>
0

>  <SCORE.RESTR.CAVITY>
0

>  <SCORE.RESTR.norm>
0

>  <SCORE.SYSTEM>
0

>  <SCORE.SYSTEM.CONST>
0

>  <SCORE.SYSTEM.DIHEDRAL>
0

>  <SCORE.SYSTEM.SOLV>
0

>  <SCORE.SYSTEM.norm>
0

>  <SCORE.heavy>
12

>  <SCORE.norm>
-0.507035

>  <RMSD>
27.228

$$$$
ligand
 OpenBabel11021811503D
libRbt.so/2013.1/901 2013/11/27
 12 13  0  0  0  0  0  0  0  0999 V2000
  -16.6984   28.3779   -4.6435 C   0  0  0  0  0  0  0  0  0  0  0  0
  -15.0455   29.9712   -4.2383 C   0  0  0  0  0  0  0  0  0  0  0  0
  -17.0237   27.1196   -4.9258 N   0  0  0  0  0  0  0  0  0  0  0  0
  -13.7673   30.3539   -4.1442 N   0  0  0  0  0  0  0  0  0  0  0  0
  -15.3937   28.7149   -4.5467 N   0  0  0  0  0  0  0  0  0  0  0  0
  -17.6735   29.2895   -4.4318 N   0  0  0  0  0  0  0  0  0  0  0  0
  -16.6904   33.2021   -3.5153 N   0  0  0  0  0  0  0  0  0  0  0  0
  -18.0351   32.8138   -3.6189 C   0  0  0  0  0  0  0  0  0  0  0  0
  -18.3619   31.4762   -3.9420 N   0  0  0  0  0  0  0  0  0  0  0  0
  -17.3719   30.5766   -4.1278 C   0  0  0  0  0  0  0  0  0  0  0  0
  -16.0272   30.9449   -4.0168 C   0  0  0  0  0  0  0  0  0  0  0  0
  -15.6653   32.2556   -3.7111 C   0  0  0  0  0  0  0  0  0  0  0  0
  1  3  1  0  0  0  0
  1  5  1  0  0  0  0
  1  6  2  0  0  0  0
  2  5  2  0  0  0  0
  2 11  1  0  0  0  0
  2  4  1  0  0  0  0
  6 10  1  0  0  0  0
  7  8  2  0  0  0  0
  7 12  1  0  0  0  0
  8  9  1  0  0  0  0
  9 10  2  0  0  0  0
 10 11  1  0  0  0  0
 11 12  2  0  0  0  0
M  END
>  <CHROM.1>
-16.47992786,30.39408821,-4.16252935,1.39022335,0.01219638,-2.91281327

>  <Name>
ligand

>  <RI>
0

>  <Rbt.Current_Directory>
/home/itssahil/PROJECTS/Mol_Feturizer/New_Systems/rnas/4LX5

>  <Rbt.Executable>
rbdock ($Id: //depot/dev/client3/rdock/2013.1/src/exe/rbdock.cxx#4 $)

>  <Rbt.Library>
libRbt.so (2013.1, Build901 2013/11/27)

>  <Rbt.Parameter_File>
/export/apps/rDock/src/rDock_2013.1_src/data/scripts/dock_solv.prm

>  <Rbt.Receptor>
prm/blind_docking_80.prm

>  <SCORE>
-6.67129

>  <SCORE.INTER>
-6.67129

>  <SCORE.INTER.CONST>
1

>  <SCORE.INTER.POLAR>
0

>  <SCORE.INTER.ROT>
0

>  <SCORE.INTER.SOLV>
11.2012

>  <SCORE.INTER.VDW>
-11.7813

>  <SCORE.INTER.norm>
-0.555941

>  <SCORE.INTRA>
0

>  <SCORE.INTRA.DIHEDRAL>
0

>  <SCORE.INTRA.DIHEDRAL.0>
0

>  <SCORE.INTRA.POLAR>
0

>  <SCORE.INTRA.POLAR.0>
0

>  <SCORE.INTRA.REPUL>
0

>  <SCORE.INTRA.REPUL.0>
0

>  <SCORE.INTRA.SOLV>
0

>  <SCORE.INTRA.SOLV.lig_0>
-48.1583

>  <SCORE.INTRA.VDW>
0

>  <SCORE.INTRA.VDW.0>
0

>  <SCORE.INTRA.norm>
0

>  <SCORE.RESTR>
0

>  <SCORE.RESTR.CAVITY>
0

>  <SCORE.RESTR.norm>
0

>  <SCORE.SYSTEM>
0

>  <SCORE.SYSTEM.CONST>
0

>  <SCORE.SYSTEM.DIHEDRAL>
0

>  <SCORE.SYSTEM.SOLV>
0

>  <SCORE.SYSTEM.norm>
0

>  <SCORE.heavy>
12

>  <SCORE.norm>
-0.555941

>  <RMSD>
27.297

$$$$
ligand
 OpenBabel11021811503D
libRbt.so/2013.1/901 2013/11/27
 12 13  0  0  0  0  0  0  0  0999 V2000
  -15.9778   33.2206   -2.5841 C   0  0  0  0  0  0  0  0  0  0  0  0
  -14.5035   31.6922   -3.5459 C   0  0  0  0  0  0  0  0  0  0  0  0
  -16.1683   34.3168   -1.8554 N   0  0  0  0  0  0  0  0  0  0  0  0
  -13.2755   31.2117   -3.7702 N   0  0  0  0  0  0  0  0  0  0  0  0
  -14.7181   32.7798   -2.7938 N   0  0  0  0  0  0  0  0  0  0  0  0
  -17.0404   32.5831   -3.1236 N   0  0  0  0  0  0  0  0  0  0  0  0
  -16.4747   29.1924   -5.4254 N   0  0  0  0  0  0  0  0  0  0  0  0
  -17.7685   29.6830   -5.1905 C   0  0  0  0  0  0  0  0  0  0  0  0
  -17.9532   30.8374   -4.3944 N   0  0  0  0  0  0  0  0  0  0  0  0
  -16.8758   31.4715   -3.8833 C   0  0  0  0  0  0  0  0  0  0  0  0
  -15.5794   31.0020   -4.1177 C   0  0  0  0  0  0  0  0  0  0  0  0
  -15.3576   29.8616   -4.8874 C   0  0  0  0  0  0  0  0  0  0  0  0
  1  3  1  0  0  0  0
  1  5  1  0  0  0  0
  1  6  2  0  0  0  0
  2  5  2  0  0  0  0
  2 11  1  0  0  0  0
  2  4  1  0  0  0  0
  6 10  1  0  0  0  0
  7  8  2  0  0  0  0
  7 12  1  0  0  0  0
  8  9  1  0  0  0  0
  9 10  2  0  0  0  0
 10 11  1  0  0  0  0
 11 12  2  0  0  0  0
M  END
>  <CHROM.1>
-15.97163501,31.51318457,-3.77944118,1.28787927,-0.06421345,0.60690976

>  <Name>
ligand

>  <RI>
0

>  <Rbt.Current_Directory>
/home/itssahil/PROJECTS/Mol_Feturizer/New_Systems/rnas/4LX5

>  <Rbt.Executable>
rbdock ($Id: //depot/dev/client3/rdock/2013.1/src/exe/rbdock.cxx#4 $)

>  <Rbt.Library>
libRbt.so (2013.1, Build901 2013/11/27)

>  <Rbt.Parameter_File>
/export/apps/rDock/src/rDock_2013.1_src/data/scripts/dock_solv.prm

>  <Rbt.Receptor>
prm/blind_docking_40.prm

>  <SCORE>
-6.89121

>  <SCORE.INTER>
-6.89121

>  <SCORE.INTER.CONST>
1

>  <SCORE.INTER.POLAR>
0

>  <SCORE.INTER.ROT>
0

>  <SCORE.INTER.SOLV>
3.06245

>  <SCORE.INTER.VDW>
-9.21496

>  <SCORE.INTER.norm>
-0.574267

>  <SCORE.INTRA>
0

>  <SCORE.INTRA.DIHEDRAL>
0

>  <SCORE.INTRA.DIHEDRAL.0>
0

>  <SCORE.INTRA.POLAR>
0

>  <SCORE.INTRA.POLAR.0>
0

>  <SCORE.INTRA.REPUL>
0

>  <SCORE.INTRA.REPUL.0>
0

>  <SCORE.INTRA.SOLV>
0

>  <SCORE.INTRA.SOLV.lig_0>
-48.1583

>  <SCORE.INTRA.VDW>
0

>  <SCORE.INTRA.VDW.0>
0

>  <SCORE.INTRA.norm>
0

>  <SCORE.RESTR>
0

>  <SCORE.RESTR.CAVITY>
0

>  <SCORE.RESTR.norm>
0

>  <SCORE.SYSTEM>
0

>  <SCORE.SYSTEM.CONST>
0

>  <SCORE.SYSTEM.DIHEDRAL>
0

>  <SCORE.SYSTEM.SOLV>
0

>  <SCORE.SYSTEM.norm>
0

>  <SCORE.heavy>
12

>  <SCORE.norm>
-0.574267

>  <RMSD>
27.425

$$$$
ligand
 OpenBabel11021811503D
libRbt.so/2013.1/901 2013/11/27
 12 13  0  0  0  0  0  0  0  0999 V2000
  -16.2809   33.0761   -3.1763 C   0  0  0  0  0  0  0  0  0  0  0  0
  -14.6317   31.5574   -3.8155 C   0  0  0  0  0  0  0  0  0  0  0  0
  -16.6044   34.2416   -2.6233 N   0  0  0  0  0  0  0  0  0  0  0  0
  -13.3589   31.1531   -3.8897 N   0  0  0  0  0  0  0  0  0  0  0  0
  -14.9804   32.7156   -3.2397 N   0  0  0  0  0  0  0  0  0  0  0  0
  -17.2509   32.2866   -3.6885 N   0  0  0  0  0  0  0  0  0  0  0  0
  -16.2699   28.6731   -5.4479 N   0  0  0  0  0  0  0  0  0  0  0  0
  -17.6097   29.0834   -5.3689 C   0  0  0  0  0  0  0  0  0  0  0  0
  -17.9368   30.3160   -4.7571 N   0  0  0  0  0  0  0  0  0  0  0  0
  -16.9497   31.0995   -4.2716 C   0  0  0  0  0  0  0  0  0  0  0  0
  -15.6087   30.7103   -4.3529 C   0  0  0  0  0  0  0  0  0  0  0  0
  -15.2478   29.4982   -4.9382 C   0  0  0  0  0  0  0  0  0  0  0  0
  1  3  1  0  0  0  0
  1  5  1  0  0  0  0
  1  6  2  0  0  0  0
  2  5  2  0  0  0  0
  2 11  1  0  0  0  0
  2  4  1  0  0  0  0
  6 10  1  0  0  0  0
  7  8  2  0  0  0  0
  7 12  1  0  0  0  0
  8  9  1  0  0  0  0
  9 10  2  0  0  0  0
 10 11  1  0  0  0  0
 11 12  2  0  0  0  0
M  END
>  <CHROM.1>
-16.06128683,31.22879149,-4.11624652,1.39075673,-0.08486793,0.47556279

>  <Name>
ligand

>  <RI>
0

>  <Rbt.Current_Directory>
/home/itssahil/PROJECTS/Mol_Feturizer/New_Systems/rnas/4LX5

>  <Rbt.Executable>
rbdock ($Id: //depot/dev/client3/rdock/2013.1/src/exe/rbdock.cxx#4 $)

>  <Rbt.Library>
libRbt.so (2013.1, Build901 2013/11/27)

>  <Rbt.Parameter_File>
/export/apps/rDock/src/rDock_2013.1_src/data/scripts/dock_solv.prm

>  <Rbt.Receptor>
prm/blind_docking_80.prm

>  <SCORE>
-6.86267

>  <SCORE.INTER>
-6.86267

>  <SCORE.INTER.CONST>
1

>  <SCORE.INTER.POLAR>
0

>  <SCORE.INTER.ROT>
0

>  <SCORE.INTER.SOLV>
4.70743

>  <SCORE.INTER.VDW>
-9.74426

>  <SCORE.INTER.norm>
-0.571889

>  <SCORE.INTRA>
0

>  <SCORE.INTRA.DIHEDRAL>
0

>  <SCORE.INTRA.DIHEDRAL.0>
0

>  <SCORE.INTRA.POLAR>
0

>  <SCORE.INTRA.POLAR.0>
0

>  <SCORE.INTRA.REPUL>
0

>  <SCORE.INTRA.REPUL.0>
0

>  <SCORE.INTRA.SOLV>
0

>  <SCORE.INTRA.SOLV.lig_0>
-48.1583

>  <SCORE.INTRA.VDW>
0

>  <SCORE.INTRA.VDW.0>
0

>  <SCORE.INTRA.norm>
0

>  <SCORE.RESTR>
0

>  <SCORE.RESTR.CAVITY>
0

>  <SCORE.RESTR.norm>
0

>  <SCORE.SYSTEM>
0

>  <SCORE.SYSTEM.CONST>
0

>  <SCORE.SYSTEM.DIHEDRAL>
0

>  <SCORE.SYSTEM.SOLV>
0

>  <SCORE.SYSTEM.norm>
0

>  <SCORE.heavy>
12

>  <SCORE.norm>
-0.571889

>  <RMSD>
27.434

$$$$
ligand
 OpenBabel11021811503D
libRbt.so/2013.1/901 2013/11/27
 12 13  0  0  0  0  0  0  0  0999 V2000
  -15.5403   33.6837   -1.8030 C   0  0  0  0  0  0  0  0  0  0  0  0
  -14.4961   32.1002   -3.1585 C   0  0  0  0  0  0  0  0  0  0  0  0
  -15.4426   34.6346   -0.8784 N   0  0  0  0  0  0  0  0  0  0  0  0
  -13.4187   31.4312   -3.5836 N   0  0  0  0  0  0  0  0  0  0  0  0
  -14.4224   33.0434   -2.2100 N   0  0  0  0  0  0  0  0  0  0  0  0
  -16.7467   33.3928   -2.3385 N   0  0  0  0  0  0  0  0  0  0  0  0
  -17.0745   30.4654   -5.2433 N   0  0  0  0  0  0  0  0  0  0  0  0
  -18.2131   31.1556   -4.7996 C   0  0  0  0  0  0  0  0  0  0  0  0
  -18.0931   32.1483   -3.7992 N   0  0  0  0  0  0  0  0  0  0  0  0
  -16.8748   32.4383   -3.2937 C   0  0  0  0  0  0  0  0  0  0  0  0
  -15.7289   31.7677   -3.7335 C   0  0  0  0  0  0  0  0  0  0  0  0
  -15.8082   30.7758   -4.7092 C   0  0  0  0  0  0  0  0  0  0  0  0
  1  3  1  0  0  0  0
  1  5  1  0  0  0  0
  1  6  2  0  0  0  0
  2  5  2  0  0  0  0
  2 11  1  0  0  0  0
  2  4  1  0  0  0  0
  6 10  1  0  0  0  0
  7  8  2  0  0  0  0
  7 12  1  0  0  0  0
  8  9  1  0  0  0  0
  9 10  2  0  0  0  0
 10 11  1  0  0  0  0
 11 12  2  0  0  0  0
M  END
>  <CHROM.1>
-15.97892940,32.27350794,-3.27386246,1.07043225,-0.13949401,0.77201123

>  <Name>
ligand

>  <RI>
0

>  <Rbt.Current_Directory>
/home/itssahil/PROJECTS/Mol_Feturizer/New_Systems/rnas/4LX5

>  <Rbt.Executable>
rbdock ($Id: //depot/dev/client3/rdock/2013.1/src/exe/rbdock.cxx#4 $)

>  <Rbt.Library>
libRbt.so (2013.1, Build901 2013/11/27)

>  <Rbt.Parameter_File>
/export/apps/rDock/src/rDock_2013.1_src/data/scripts/dock_solv.prm

>  <Rbt.Receptor>
prm/blind_docking_100.prm

>  <SCORE>
-6.68864

>  <SCORE.INTER>
-6.68864

>  <SCORE.INTER.CONST>
1

>  <SCORE.INTER.POLAR>
0

>  <SCORE.INTER.ROT>
0

>  <SCORE.INTER.SOLV>
1.76153

>  <SCORE.INTER.VDW>
-8.64627

>  <SCORE.INTER.norm>
-0.557386

>  <SCORE.INTRA>
0

>  <SCORE.INTRA.DIHEDRAL>
0

>  <SCORE.INTRA.DIHEDRAL.0>
0

>  <SCORE.INTRA.POLAR>
0

>  <SCORE.INTRA.POLAR.0>
0

>  <SCORE.INTRA.REPUL>
0

>  <SCORE.INTRA.REPUL.0>
0

>  <SCORE.INTRA.SOLV>
0

>  <SCORE.INTRA.SOLV.lig_0>
-48.1583

>  <SCORE.INTRA.VDW>
0

>  <SCORE.INTRA.VDW.0>
0

>  <SCORE.INTRA.norm>
0

>  <SCORE.RESTR>
0

>  <SCORE.RESTR.CAVITY>
0

>  <SCORE.RESTR.norm>
0

>  <SCORE.SYSTEM>
0

>  <SCORE.SYSTEM.CONST>
0

>  <SCORE.SYSTEM.DIHEDRAL>
0

>  <SCORE.SYSTEM.SOLV>
0

>  <SCORE.SYSTEM.norm>
0

>  <SCORE.heavy>
12

>  <SCORE.norm>
-0.557386

>  <RMSD>
27.705

$$$$
